1
    SWAT Dec 23 2016    VER 2016/Rev 664                                                                 0/ 0/   0      0: 0: 0

    General Input/Output section (file.cio):                                        
    10/21/2025 12:00:00 AM ARCGIS-SWAT interface AV                                 
                                                                                    
         Number of years in run:   25
         Area of watershed:     6118.194 km2
         Random number generator cycles: 0, use default numbers

         Initial random number seed: wet/dry day prob        748932582
         Initial random number seed: radiation              1948832765
         Initial random number seed: precipitation           857034417
         Initial random number seed: 0.5 hr rainfall          67377721
         Initial random number seed: wind speed              366304404
         Initial random number seed: irrigation             1094585182
         Initial random number seed: relative humidity      1767585417
         Initial random number seed: max temperature         608439319
         Initial random number seed: min temperature         592757081

         Precipitation data used in run:
          Multiple gages read for watershed
             Daily rainfall data used

         Temperature data used in run:
          Multiple gages read for watershed

         PET method used: Penman-Monteith

         Rainfall/Runoff/Routing Option:
          Daily rainfall data
          Runoff estimated with curve number method
          Daily stream routing
           Variable Storage routing method
           Channel dimensions remain constant
           Subbasin algae/CBOD loadings not modeled
           In-stream nutrient transformations modeled using QUAL2E equations

         Subbasin Input Summary:
          Sub Latitude  Elev(m) #HRUs Ponds Elevbnds Wetlnd
            1    34.98   430.00     9                   
            2    34.98   667.00     7                   
            3    34.98   454.00     8                   
            4    34.98   463.00     7                   
            5    34.98  1030.00     4                   
            6    34.98   327.00     8                   
            7    34.98   418.00     4                   
            8    34.98  1312.00     4                   
            9    34.98  1343.00     5                   
           10    34.88   987.00     4                   
           11    34.88  1278.00     4                   
           12    34.88  1008.00     4                   
           13    34.88  1236.00     5                   
           14    34.88   401.00    10                   
           15    34.88   240.00    15                   
           16    34.88   193.00    10                   
           17    34.88    94.00    13                   
           18    34.88   155.00    10                   
           19    34.88   445.00     7                   
           20    34.88   287.00    18                   
           21    34.88   258.00     6                   
           22    34.88   172.00    11                   
           23    34.88   407.00    14                   
           24    34.88   221.00     6                   
           25    34.80   391.00    11                   
           26    34.80   671.00     2                   
           27    34.80   313.00    15                   

         HRU Input Summary Table 1:
          Sub   HRU   Area(ha) Slope SlpLgth(m) Ovrlnd_N CondII_CN TimeConc(hr) ESCO EPCO
            1      1    7807.95 0.323       9.15    0.140     62.00        0.727 0.95 1.00
            1      2    2629.41 0.175      18.29    0.140     62.00        0.411 0.95 1.00
            1      3    1320.07 0.175      18.29    0.140     81.00        0.299 0.95 1.00
            1      4    4577.76 0.326       9.15    0.140     81.00        0.489 0.95 1.00
            1      5   13040.25 0.312       9.15    0.100     35.00        1.072 0.95 1.00
            1      6    5721.90 0.174      18.29    0.100     35.00        0.620 0.95 1.00
            1      7    5359.88 0.126      24.39    0.100     35.00        0.635 0.95 1.00
            1      8    1391.19 0.176      18.29    0.100     70.00        0.275 0.95 1.00
            1      9    5255.32 0.335       9.15    0.100     70.00        0.524 0.95 1.00
            2     10    2953.35 0.330       9.15    0.140     62.00        0.261 0.95 1.00
            2     11     760.24 0.176      18.29    0.140     62.00        0.217 0.95 1.00
            2     12   11121.10 0.384       9.15    0.140     81.00        0.632 0.95 1.00
            2     13    4533.36 0.320       9.15    0.100     35.00        0.323 0.95 1.00
            2     14    1559.24 0.175      18.29    0.100     35.00        0.233 0.95 1.00
            2     15    1445.68 0.126      24.39    0.100     35.00        0.268 0.95 1.00
            2     16   24538.08 0.415       9.15    0.100     70.00        1.160 0.95 1.00
            3     17    5295.26 0.331       9.15    0.140     62.00        0.846 0.95 1.00
            3     18    1311.11 0.175      18.29    0.140     62.00        0.388 0.95 1.00
            3     19    1824.95 0.379       9.15    0.140     62.00        0.384 0.95 1.00
            3     20    2329.76 0.175      18.29    0.100     35.00        0.503 0.95 1.00
            3     21    8111.42 0.333       9.15    0.100     35.00        1.171 0.95 1.00
            3     22    1917.44 0.323       9.15    0.100     55.00        0.385 0.95 1.00
            3     23    1494.70 0.030      91.46    0.100     55.00        0.851 0.95 1.00
            3     24    1329.10 0.071      60.98    0.100     55.00        0.589 0.95 1.00
            4     25    1590.64 0.176      18.29    0.140     62.00        0.188 0.95 1.00
            4     26    4674.49 0.299       9.15    0.140     62.00        0.153 0.95 1.00
            4     27    1254.90 0.319       9.15    0.140     81.00        0.110 0.95 1.00
            4     28     313.67 0.176      18.29    0.140     81.00        0.170 0.95 1.00
            4     29    1301.28 0.126      24.39    0.100     35.00        0.196 0.95 1.00
            4     30    4569.03 0.303       9.15    0.100     35.00        0.134 0.95 1.00
            4     31    1642.33 0.175      18.29    0.100     35.00        0.159 0.95 1.00
            5     32    7365.43 0.450       9.15    0.140     81.00        0.451 0.95 1.00
            5     33    2317.73 0.530       9.15    0.150     39.00        0.215 0.95 1.00
            5     34    7719.44 0.465       9.15    0.150     74.00        0.469 0.95 1.00
            5     35   20652.69 0.456       9.15    0.100     70.00        0.976 0.95 1.00
            6     36    1467.40 0.347       9.15    0.140     62.00        0.160 0.95 1.00
            6     37    1036.29 0.416       9.15    0.140     62.00        0.137 0.95 1.00
            6     38    3353.23 0.399       9.15    0.140     81.00        0.233 0.95 1.00
            6     39    2534.41 0.425       9.15    0.150     39.00        0.203 0.95 1.00
            6     40    2606.90 0.418       9.15    0.150     74.00        0.206 0.95 1.00
            6     41    1519.24 0.355       9.15    0.100     35.00        0.146 0.95 1.00
            6     42     730.36 0.418       9.15    0.100     35.00        0.107 0.95 1.00
            6     43    2370.04 0.404       9.15    0.100     70.00        0.178 0.95 1.00
            7     44    6186.75 0.341       9.15    0.140     62.00        0.328 0.95 1.00
            7     45    1601.55 0.176      18.29    0.140     62.00        0.238 0.95 1.00
            7     46    5944.02 0.340       9.15    0.100     35.00        0.304 0.95 1.00
            7     47    1745.25 0.175      18.29    0.100     35.00        0.214 0.95 1.00
            8     48    2076.39 0.408       9.15    0.140     62.00        0.185 0.95 1.00
            8     49   10736.54 0.405       9.15    0.140     81.00        0.507 0.95 1.00
            8     50    7914.33 0.403       9.15    0.100     35.00        0.393 0.95 1.00
            8     51   15120.74 0.428       9.15    0.100     70.00        0.639 0.95 1.00
            9     52    7776.94 0.420       9.15    0.140     81.00        0.463 0.95 1.00
            9     53    1795.61 0.438       9.15    0.150     39.00        0.191 0.95 1.00
            9     54    4497.44 0.463       9.15    0.150     74.00        0.320 0.95 1.00
            9     55    4735.24 0.420       9.15    0.100     35.00        0.314 0.95 1.00
            9     56   15489.04 0.443       9.15    0.100     70.00        0.760 0.95 1.00
           10     57    1699.84 0.348       9.15    0.140     81.00        0.211 0.95 1.00
           10     58    4694.31 0.356       9.15    0.140     81.00        0.385 0.95 1.00
           10     59   10301.29 0.352       9.15    0.100     70.00        0.663 0.95 1.00
           10     60   15041.46 0.358       9.15    0.100     70.00        0.895 0.95 1.00
           11     61    3812.90 0.463       9.15    0.150     39.00        0.307 0.95 1.00
           11     62    3551.23 0.427       9.15    0.150     74.00        0.296 0.95 1.00
           11     63    4149.98 0.432       9.15    0.100     35.00        0.307 0.95 1.00
           11     64    7354.13 0.409       9.15    0.100     70.00        0.464 0.95 1.00
           12     65    1928.30 0.466       9.15    0.140     62.00        0.270 0.95 1.00
           12     66    3392.27 0.366       9.15    0.140     81.00        0.397 0.95 1.00
           12     67    4547.41 0.533       9.15    0.100     35.00        0.464 0.95 1.00
           12     68    6293.47 0.384       9.15    0.100     70.00        0.602 0.95 1.00
           13     69    2239.12 0.465       9.15    0.140     62.00        0.237 0.95 1.00
           13     70    3319.24 0.445       9.15    0.140     81.00        0.303 0.95 1.00
           13     71    6024.31 0.494       9.15    0.150     39.00        0.454 0.95 1.00
           13     72    7601.78 0.459       9.15    0.100     35.00        0.522 0.95 1.00
           13     73    3295.15 0.460       9.15    0.100     70.00        0.285 0.95 1.00
           14     74     490.66 0.288       9.15    0.140     62.00        0.343 0.95 1.00
           14     75     314.50 0.175      18.29    0.140     62.00        0.334 0.95 1.00
           14     76     285.92 0.126      24.39    0.140     62.00        0.371 0.95 1.00
           14     77    1069.26 0.366       9.15    0.140     62.00        0.579 0.95 1.00
           14     78    1012.26 0.346       9.15    0.140     81.00        0.558 0.95 1.00
           14     79     271.32 0.125      24.39    0.100     35.00        0.325 0.95 1.00
           14     80     835.93 0.302       9.15    0.100     35.00        0.472 0.95 1.00
           14     81     312.00 0.175      18.29    0.100     35.00        0.302 0.95 1.00
           14     82    2162.73 0.352       9.15    0.100     35.00        0.984 0.95 1.00
           14     83    1453.79 0.006     121.95    0.100     35.00        1.801 0.95 1.00
           15     84    1234.35 0.324       9.15    0.140     62.00        0.543 0.95 1.00
           15     85     375.61 0.176      18.29    0.140     62.00        0.324 0.95 1.00
           15     86    1143.24 0.319       9.15    0.140     73.00        0.514 0.95 1.00
           15     87     426.31 0.175      18.29    0.140     73.00        0.343 0.95 1.00
           15     88     413.86 0.125      24.39    0.140     73.00        0.391 0.95 1.00
           15     89    3215.11 0.355       9.15    0.140     81.00        1.133 0.95 1.00
           15     90     520.88 0.175      18.29    0.100     35.00        0.347 0.95 1.00
           15     91    1744.23 0.326       9.15    0.100     35.00        0.686 0.95 1.00
           15     92     819.28 0.338       9.15    0.100     35.00        0.389 0.95 1.00
           15     93    1154.13 0.006     121.95    0.100     35.00        1.584 0.95 1.00
           15     94     762.23 0.074      60.98    0.100     55.00        0.656 0.95 1.00
           15     95    1358.67 0.314       9.15    0.100     55.00        0.567 0.95 1.00
           15     96     734.75 0.124      24.39    0.100     55.00        0.465 0.95 1.00
           15     97     632.36 0.174      18.29    0.100     55.00        0.387 0.95 1.00
           15     98    4442.26 0.357       9.15    0.100     70.00        1.459 0.95 1.00
           16     99     124.29 0.174      18.29    0.140     62.00        0.189 0.95 1.00
           16    100     236.01 0.317       9.15    0.140     62.00        0.133 0.95 1.00
           16    101     108.43 0.127      24.39    0.140     62.00        0.237 0.95 1.00
           16    102      88.41 0.125      24.39    0.100     35.00        0.195 0.95 1.00
           16    103     157.63 0.272       9.15    0.100     35.00        0.107 0.95 1.00
           16    104      85.20 0.174      18.29    0.100     35.00        0.152 0.95 1.00
           16    105     946.00 0.002     121.95    0.100     35.00        1.750 0.95 1.00
           16    106     245.69 0.125      24.39    0.100     55.00        0.221 0.95 1.00
           16    107     169.93 0.078      60.98    0.100     55.00        0.385 0.95 1.00
           16    108     150.67 0.172      18.29    0.100     55.00        0.164 0.95 1.00
           17    109     188.42 0.031      91.46    0.140     73.00        0.780 0.95 1.00
           17    110     209.50 0.072      60.98    0.140     73.00        0.500 0.95 1.00
           17    111     351.43 0.285       9.15    0.140     73.00        0.184 0.95 1.00
           17    112     173.96 0.175      18.29    0.140     73.00        0.213 0.95 1.00
           17    113     169.90 0.124      24.39    0.140     73.00        0.265 0.95 1.00
           17    114      47.65 0.174      18.29    0.150     39.00        0.188 0.95 1.00
           17    115      35.35 0.127      24.39    0.150     39.00        0.237 0.95 1.00
           17    116     115.54 0.295       9.15    0.150     39.00        0.131 0.95 1.00
           17    117     509.27 0.295       9.15    0.150     61.00        0.221 0.95 1.00
           17    118     177.91 0.175      18.29    0.150     61.00        0.221 0.95 1.00
           17    119     304.06 0.292       9.15    0.140     77.00        0.172 0.95 1.00
           17    120     313.04 0.030      91.46    0.140     77.00        0.816 0.95 1.00
           17    121     313.04 0.072      60.98    0.140     77.00        0.524 0.95 1.00
           18    122     967.83 0.300       9.15    0.140     62.00        0.415 0.95 1.00
           18    123     303.69 0.175      18.29    0.140     62.00        0.282 0.95 1.00
           18    124     129.39 0.284       9.15    0.140     62.00        0.150 0.95 1.00
           18    125     274.38 0.002     121.95    0.140     62.00        2.076 0.95 1.00
           18    126     371.95 0.337       9.15    0.140     81.00        0.229 0.95 1.00
           18    127    3509.26 0.001     121.95    0.100     35.00        2.977 0.95 1.00
           18    128     321.06 0.269       9.15    0.100     55.00        0.201 0.95 1.00
           18    129     268.89 0.173      18.29    0.100     55.00        0.240 0.95 1.00
           18    130     262.36 0.076      60.98    0.100     55.00        0.459 0.95 1.00
           18    131     320.23 0.124      24.39    0.100     55.00        0.300 0.95 1.00
           19    132    8314.12 0.382       9.15    0.140     62.00        1.367 0.95 1.00
           19    133    2036.11 0.175      18.29    0.140     81.00        0.539 0.95 1.00
           19    134    8408.29 0.345       9.15    0.140     81.00        1.383 0.95 1.00
           19    135    1658.10 0.176      18.29    0.100     35.00        0.447 0.95 1.00
           19    136    7015.36 0.343       9.15    0.100     35.00        1.177 0.95 1.00
           19    137    8645.18 0.326       9.15    0.100     70.00        1.400 0.95 1.00
           19    138    2905.76 0.175      18.29    0.100     70.00        0.645 0.95 1.00
           20    139     617.47 0.176      18.29    0.140     62.00        0.492 0.95 1.00
           20    140    2027.70 0.324       9.15    0.140     62.00        1.016 0.95 1.00
           20    141     429.27 0.313       9.15    0.140     73.00        0.329 0.95 1.00
           20    142     152.77 0.075      60.98    0.140     73.00        0.534 0.95 1.00
           20    143     168.70 0.125      24.39    0.140     73.00        0.322 0.95 1.00
           20    144     173.26 0.175      18.29    0.140     73.00        0.272 0.95 1.00
           20    145     187.32 0.175      18.29    0.140     81.00        0.280 0.95 1.00
           20    146     651.61 0.322       9.15    0.140     81.00        0.434 0.95 1.00
           20    147    1798.17 0.125      24.39    0.100     35.00        1.011 0.95 1.00
           20    148    1752.93 0.175      18.29    0.100     35.00        0.950 0.95 1.00
           20    149    1442.45 0.076      60.98    0.100     35.00        1.044 0.95 1.00
           20    150    3484.29 0.291       9.15    0.100     35.00        1.563 0.95 1.00
           20    151    4323.40 0.003     121.95    0.100     35.00        3.220 0.95 1.00
           20    152    1278.32 0.281       9.15    0.100     35.00        0.695 0.95 1.00
           20    153     739.80 0.074      60.98    0.100     55.00        0.742 0.95 1.00
           20    154     590.54 0.174      18.29    0.100     55.00        0.450 0.95 1.00
           20    155     706.28 0.124      24.39    0.100     55.00        0.546 0.95 1.00
           20    156     975.68 0.284       9.15    0.100     55.00        0.565 0.95 1.00
           21    157    7050.17 0.430       9.15    0.140     62.00        1.343 0.95 1.00
           21    158    3291.32 0.415       9.15    0.140     81.00        0.731 0.95 1.00
           21    159    4577.27 0.425       9.15    0.100     35.00        0.931 0.95 1.00
           21    160    2095.14 0.073      60.98    0.100     55.00        0.796 0.95 1.00
           21    161    3203.33 0.310       9.15    0.100     55.00        0.706 0.95 1.00
           21    162    1657.58 0.124      24.39    0.100     55.00        0.532 0.95 1.00
           22    163     942.62 0.396       9.15    0.140     62.00        0.452 0.95 1.00
           22    164    2648.04 0.408       9.15    0.140     81.00        0.990 0.95 1.00
           22    165     525.85 0.327       9.15    0.100     35.00        0.294 0.95 1.00
           22    166     155.28 0.174      18.29    0.100     35.00        0.211 0.95 1.00
           22    167     140.49 0.126      24.39    0.100     35.00        0.246 0.95 1.00
           22    168     856.19 0.349       9.15    0.100     35.00        0.409 0.95 1.00
           22    169     370.79 0.123      24.39    0.100     55.00        0.340 0.95 1.00
           22    170     583.24 0.072      60.98    0.100     55.00        0.603 0.95 1.00
           22    171     553.05 0.030      91.46    0.100     55.00        0.831 0.95 1.00
           22    172     524.43 0.300       9.15    0.100     55.00        0.295 0.95 1.00
           22    173    1093.01 0.362       9.15    0.100     70.00        0.489 0.95 1.00
           23    174    2562.86 0.387       9.15    0.140     62.00        0.167 0.95 1.00
           23    175    1314.99 0.310       9.15    0.140     73.00        0.137 0.95 1.00
           23    176     481.17 0.176      18.29    0.140     73.00        0.183 0.95 1.00
           23    177     436.03 0.125      24.39    0.140     73.00        0.234 0.95 1.00
           23    178    2509.16 0.377       9.15    0.140     81.00        0.166 0.95 1.00
           23    179    3299.43 0.390       9.15    0.100     35.00        0.171 0.95 1.00
           23    180    1284.67 0.297       9.15    0.100     55.00        0.120 0.95 1.00
           23    181     457.99 0.176      18.29    0.100     55.00        0.153 0.95 1.00
           23    182     361.47 0.126      24.39    0.100     55.00        0.191 0.95 1.00
           23    183     899.84 0.029      91.46    0.100     55.00        0.639 0.95 1.00
           23    184     945.60 0.275       9.15    0.100     55.00        0.112 0.95 1.00
           23    185     772.85 0.173      18.29    0.100     55.00        0.164 0.95 1.00
           23    186    1062.74 0.123      24.39    0.100     55.00        0.216 0.95 1.00
           23    187    1300.93 0.074      60.98    0.100     55.00        0.404 0.95 1.00
           24    188     671.33 0.176      18.29    0.100     35.00        0.309 0.95 1.00
           24    189    2217.81 0.305       9.15    0.100     35.00        0.572 0.95 1.00
           24    190    1228.58 0.123      24.39    0.100     55.00        0.474 0.95 1.00
           24    191    1460.73 0.031      91.46    0.100     55.00        0.940 0.95 1.00
           24    192    1891.83 0.073      60.98    0.100     55.00        0.793 0.95 1.00
           24    193    1280.03 0.289       9.15    0.100     55.00        0.384 0.95 1.00
           25    194     605.87 0.175      18.29    0.140     73.00        0.296 0.95 1.00
           25    195    1995.81 0.345       9.15    0.140     73.00        0.460 0.95 1.00
           25    196    4791.06 0.377       9.15    0.140     81.00        0.884 0.95 1.00
           25    197    2753.00 0.311       9.15    0.100     55.00        0.566 0.95 1.00
           25    198     799.85 0.127      24.39    0.100     55.00        0.343 0.95 1.00
           25    199     974.09 0.175      18.29    0.100     55.00        0.333 0.95 1.00
           25    200     850.19 0.174      18.29    0.100     55.00        0.311 0.95 1.00
           25    201     923.49 0.075      60.98    0.100     55.00        0.547 0.95 1.00
           25    202     942.04 0.124      24.39    0.100     55.00        0.370 0.95 1.00
           25    203    1635.05 0.302       9.15    0.100     55.00        0.387 0.95 1.00
           25    204    4493.23 0.461       9.15    0.100     70.00        0.821 0.95 1.00
           26    205   17646.53 0.474       9.15    0.140     81.00        1.668 0.95 1.00
           26    206   32174.40 0.489       9.15    0.100     70.00        2.750 0.95 1.00
           27    207     332.27 0.176      18.29    0.140     62.00        0.232 0.95 1.00
           27    208    1276.19 0.334       9.15    0.140     62.00        0.309 0.95 1.00
           27    209     270.13 0.031      91.46    0.140     73.00        0.784 0.95 1.00
           27    210     531.76 0.303       9.15    0.140     73.00        0.194 0.95 1.00
           27    211     264.53 0.123      24.39    0.140     73.00        0.273 0.95 1.00
           27    212     339.19 0.073      60.98    0.140     73.00        0.510 0.95 1.00
           27    213    1221.46 0.345       9.15    0.140     81.00        0.300 0.95 1.00
           27    214    1153.58 0.126      24.39    0.100     35.00        0.377 0.95 1.00
           27    215    3156.27 0.306       9.15    0.100     35.00        0.559 0.95 1.00
           27    216    1257.57 0.175      18.29    0.100     35.00        0.351 0.95 1.00
           27    217    2222.90 0.123      24.39    0.100     55.00        0.534 0.95 1.00
           27    218    2374.80 0.284       9.15    0.100     55.00        0.454 0.95 1.00
           27    219    2908.39 0.074      60.98    0.100     55.00        0.810 0.95 1.00
           27    220    1951.98 0.031      91.46    0.100     55.00        0.913 0.95 1.00
           27    221    4132.95 0.344       9.15    0.100     70.00        0.685 0.95 1.00

         HRU CN Input Summary Table:
          Sub   HRU   Area(ha)  LULC      Soil    CN1    CN2    CN3  Wilting Point (mm H2O)  Field Capacity (mm H2O)  Saturation (mm H2O)
            1      1    7807.95  AGRC  SCALSEP    42.6   62.0   80.1                     4.4                      8.9                 13.3
            1      2    2629.41  AGRC  SCALSEP    42.6   62.0   80.1                     4.4                      8.9                 13.3
            1      3    1320.07  AGRC  SPESMB     64.3   81.0   92.0                     4.0                      8.0                 12.1
            1      4    4577.76  AGRC  SPESMB     64.3   81.0   92.0                     4.0                      8.0                 12.1
            1      5   13040.25  FRSE  SCALSEP    15.1   35.0   54.2                     4.4                      8.9                 13.3
            1      6    5721.90  FRSE  SCALSEP    15.1   35.0   54.2                     4.4                      8.9                 13.3
            1      7    5359.88  FRSE  SCALSEP    15.1   35.0   54.2                     4.4                      8.9                 13.3
            1      8    1391.19  FRSE  SPESMB     51.2   70.0   85.7                     4.0                      8.0                 12.1
            1      9    5255.32  FRSE  SPESMB     51.2   70.0   85.7                     4.0                      8.0                 12.1
            2     10    2953.35  AGRC  SCALSEP    42.6   62.0   80.1                     4.4                      8.9                 13.3
            2     11     760.24  AGRC  SCALSEP    42.6   62.0   80.1                     4.4                      8.9                 13.3
            2     12   11121.10  AGRC  SPESMB     64.3   81.0   92.0                     4.0                      8.0                 12.1
            2     13    4533.36  FRSE  SCALSEP    15.1   35.0   54.2                     4.4                      8.9                 13.3
            2     14    1559.24  FRSE  SCALSEP    15.1   35.0   54.2                     4.4                      8.9                 13.3
            2     15    1445.68  FRSE  SCALSEP    15.1   35.0   54.2                     4.4                      8.9                 13.3
            2     16   24538.08  FRSE  SPESMB     51.2   70.0   85.7                     4.0                      8.0                 12.1
            3     17    5295.26  AGRC  SCALSEP    42.6   62.0   80.1                     4.4                      8.9                 13.3
            3     18    1311.11  AGRC  SCALSEP    42.6   62.0   80.1                     4.4                      8.9                 13.3
            3     19    1824.95  AGRC  SMB        42.6   62.0   80.1                     4.0                      7.9                 11.9
            3     20    2329.76  FRSE  SCALSEP    15.1   35.0   54.2                     4.4                      8.9                 13.3
            3     21    8111.42  FRSE  SCALSEP    15.1   35.0   54.2                     4.4                      8.9                 13.3
            3     22    1917.44  FRSE  SPE        35.3   55.0   74.5                     4.0                      8.0                 12.1
            3     23    1494.70  FRSE  SPE        35.3   55.0   74.5                     4.0                      8.0                 12.1
            3     24    1329.10  FRSE  SPE        35.3   55.0   74.5                     4.0                      8.0                 12.1
            4     25    1590.64  AGRC  SCALSEP    42.6   62.0   80.1                     4.4                      8.9                 13.3
            4     26    4674.49  AGRC  SCALSEP    42.6   62.0   80.1                     4.4                      8.9                 13.3
            4     27    1254.90  AGRC  SPESMB     64.3   81.0   92.0                     4.0                      8.0                 12.1
            4     28     313.67  AGRC  SPESMB     64.3   81.0   92.0                     4.0                      8.0                 12.1
            4     29    1301.28  FRSE  SCALSEP    15.1   35.0   54.2                     4.4                      8.9                 13.3
            4     30    4569.03  FRSE  SCALSEP    15.1   35.0   54.2                     4.4                      8.9                 13.3
            4     31    1642.33  FRSE  SCALSEP    15.1   35.0   54.2                     4.4                      8.9                 13.3
            5     32    7365.43  AGRC  SPESMB     64.3   81.0   92.0                     4.0                      8.0                 12.1
            5     33    2317.73  RNGB  SBR        19.1   39.0   58.8                     7.7                     15.5                 23.2
            5     34    7719.44  RNGB  SPESMB     55.7   74.0   88.1                     4.0                      8.0                 12.1
            5     35   20652.69  FRSE  SPESMB     51.2   70.0   85.7                     4.0                      8.0                 12.1
            6     36    1467.40  AGRC  SCALSEP    42.6   62.0   80.1                     4.4                      8.9                 13.3
            6     37    1036.29  AGRC  SMB        42.6   62.0   80.1                     4.0                      7.9                 11.9
            6     38    3353.23  AGRC  SPESMB     64.3   81.0   92.0                     4.0                      8.0                 12.1
            6     39    2534.41  RNGB  SMB        19.1   39.0   58.8                     4.0                      7.9                 11.9
            6     40    2606.90  RNGB  SPESMB     55.7   74.0   88.1                     4.0                      8.0                 12.1
            6     41    1519.24  FRSE  SCALSEP    15.1   35.0   54.2                     4.4                      8.9                 13.3
            6     42     730.36  FRSE  SMB        15.1   35.0   54.2                     4.0                      7.9                 11.9
            6     43    2370.04  FRSE  SPESMB     51.2   70.0   85.7                     4.0                      8.0                 12.1
            7     44    6186.75  AGRC  SCALSEP    42.6   62.0   80.1                     4.4                      8.9                 13.3
            7     45    1601.55  AGRC  SCALSEP    42.6   62.0   80.1                     4.4                      8.9                 13.3
            7     46    5944.02  FRSE  SCALSEP    15.1   35.0   54.2                     4.4                      8.9                 13.3
            7     47    1745.25  FRSE  SCALSEP    15.1   35.0   54.2                     4.4                      8.9                 13.3
            8     48    2076.39  AGRC  SBR        42.6   62.0   80.1                     7.7                     15.5                 23.2
            8     49   10736.54  AGRC  SPESMB     64.3   81.0   92.0                     4.0                      8.0                 12.1
            8     50    7914.33  FRSE  SBR        15.1   35.0   54.2                     7.7                     15.5                 23.2
            8     51   15120.74  FRSE  SPESMB     51.2   70.0   85.7                     4.0                      8.0                 12.1
            9     52    7776.94  AGRC  SPESMB     64.3   81.0   92.0                     4.0                      8.0                 12.1
            9     53    1795.61  RNGB  SBR        19.1   39.0   58.8                     7.7                     15.5                 23.2
            9     54    4497.44  RNGB  SPESMB     55.7   74.0   88.1                     4.0                      8.0                 12.1
            9     55    4735.24  FRSE  SBR        15.1   35.0   54.2                     7.7                     15.5                 23.2
            9     56   15489.04  FRSE  SPESMB     51.2   70.0   85.7                     4.0                      8.0                 12.1
           10     57    1699.84  AGRC  SBRSPE     64.3   81.0   92.0                     5.9                     11.8                 17.6
           10     58    4694.31  AGRC  SPESMB     64.3   81.0   92.0                     4.0                      8.0                 12.1
           10     59   10301.29  FRSE  SBRSPE     51.2   70.0   85.7                     5.9                     11.8                 17.6
           10     60   15041.46  FRSE  SPESMB     51.2   70.0   85.7                     4.0                      8.0                 12.1
           11     61    3812.90  RNGB  SCALSEP    19.1   39.0   58.8                     4.4                      8.9                 13.3
           11     62    3551.23  RNGB  SPESMB     55.7   74.0   88.1                     4.0                      8.0                 12.1
           11     63    4149.98  FRSE  SCALSEP    15.1   35.0   54.2                     4.4                      8.9                 13.3
           11     64    7354.13  FRSE  SPESMB     51.2   70.0   85.7                     4.0                      8.0                 12.1
           12     65    1928.30  AGRC  SMB        42.6   62.0   80.1                     4.0                      7.9                 11.9
           12     66    3392.27  AGRC  SPESMB     64.3   81.0   92.0                     4.0                      8.0                 12.1
           12     67    4547.41  FRSE  SMB        15.1   35.0   54.2                     4.0                      7.9                 11.9
           12     68    6293.47  FRSE  SPESMB     51.2   70.0   85.7                     4.0                      8.0                 12.1
           13     69    2239.12  AGRC  SCALSEP    42.6   62.0   80.1                     4.4                      8.9                 13.3
           13     70    3319.24  AGRC  SPESMB     64.3   81.0   92.0                     4.0                      8.0                 12.1
           13     71    6024.31  RNGB  SCALSEP    19.1   39.0   58.8                     4.4                      8.9                 13.3
           13     72    7601.78  FRSE  SCALSEP    15.1   35.0   54.2                     4.4                      8.9                 13.3
           13     73    3295.15  FRSE  SPESMB     51.2   70.0   85.7                     4.0                      8.0                 12.1
           14     74     490.66  AGRC  SCALSEP    42.6   62.0   80.1                     4.4                      8.9                 13.3
           14     75     314.50  AGRC  SCALSEP    42.6   62.0   80.1                     4.4                      8.9                 13.3
           14     76     285.92  AGRC  SCALSEP    42.6   62.0   80.1                     4.4                      8.9                 13.3
           14     77    1069.26  AGRC  SMB        42.6   62.0   80.1                     4.0                      7.9                 11.9
           14     78    1012.26  AGRC  SPESMB     64.3   81.0   92.0                     4.0                      8.0                 12.1
           14     79     271.32  FRSE  SCALSEP    15.1   35.0   54.2                     4.4                      8.9                 13.3
           14     80     835.93  FRSE  SCALSEP    15.1   35.0   54.2                     4.4                      8.9                 13.3
           14     81     312.00  FRSE  SCALSEP    15.1   35.0   54.2                     4.4                      8.9                 13.3
           14     82    2162.73  FRSE  SMB        15.1   35.0   54.2                     4.0                      7.9                 11.9
           14     83    1453.79  FRSE  SMB        15.1   35.0   54.2                     4.0                      7.9                 11.9
           15     84    1234.35  AGRC  SCALSEP    42.6   62.0   80.1                     4.4                      8.9                 13.3
           15     85     375.61  AGRC  SCALSEP    42.6   62.0   80.1                     4.4                      8.9                 13.3
           15     86    1143.24  AGRC  SPE        54.5   73.0   87.5                     4.0                      8.0                 12.1
           15     87     426.31  AGRC  SPE        54.5   73.0   87.5                     4.0                      8.0                 12.1
           15     88     413.86  AGRC  SPE        54.5   73.0   87.5                     4.0                      8.0                 12.1
           15     89    3215.11  AGRC  SPESMB     64.3   81.0   92.0                     4.0                      8.0                 12.1
           15     90     520.88  FRSE  SCALSEP    15.1   35.0   54.2                     4.4                      8.9                 13.3
           15     91    1744.23  FRSE  SCALSEP    15.1   35.0   54.2                     4.4                      8.9                 13.3
           15     92     819.28  FRSE  SMB        15.1   35.0   54.2                     4.0                      7.9                 11.9
           15     93    1154.13  FRSE  SMB        15.1   35.0   54.2                     4.0                      7.9                 11.9
           15     94     762.23  FRSE  SPE        35.3   55.0   74.5                     4.0                      8.0                 12.1
           15     95    1358.67  FRSE  SPE        35.3   55.0   74.5                     4.0                      8.0                 12.1
           15     96     734.75  FRSE  SPE        35.3   55.0   74.5                     4.0                      8.0                 12.1
           15     97     632.36  FRSE  SPE        35.3   55.0   74.5                     4.0                      8.0                 12.1
           15     98    4442.26  FRSE  SPESMB     51.2   70.0   85.7                     4.0                      8.0                 12.1
           16     99     124.29  AGRC  SCALSEP    42.6   62.0   80.1                     4.4                      8.9                 13.3
           16    100     236.01  AGRC  SCALSEP    42.6   62.0   80.1                     4.4                      8.9                 13.3
           16    101     108.43  AGRC  SCALSEP    42.6   62.0   80.1                     4.4                      8.9                 13.3
           16    102      88.41  FRSE  SCALSEP    15.1   35.0   54.2                     4.4                      8.9                 13.3
           16    103     157.63  FRSE  SCALSEP    15.1   35.0   54.2                     4.4                      8.9                 13.3
           16    104      85.20  FRSE  SCALSEP    15.1   35.0   54.2                     4.4                      8.9                 13.3
           16    105     946.00  FRSE  SMB        15.1   35.0   54.2                     4.0                      7.9                 11.9
           16    106     245.69  FRSE  SPE        35.3   55.0   74.5                     4.0                      8.0                 12.1
           16    107     169.93  FRSE  SPE        35.3   55.0   74.5                     4.0                      8.0                 12.1
           16    108     150.67  FRSE  SPE        35.3   55.0   74.5                     4.0                      8.0                 12.1
           17    109     188.42  AGRC  SPE        54.5   73.0   87.5                     4.0                      8.0                 12.1
           17    110     209.50  AGRC  SPE        54.5   73.0   87.5                     4.0                      8.0                 12.1
           17    111     351.43  AGRC  SPE        54.5   73.0   87.5                     4.0                      8.0                 12.1
           17    112     173.96  AGRC  SPE        54.5   73.0   87.5                     4.0                      8.0                 12.1
           17    113     169.90  AGRC  SPE        54.5   73.0   87.5                     4.0                      8.0                 12.1
           17    114      47.65  SWRN  SCALSEP    19.1   39.0   58.8                     4.4                      8.9                 13.3
           17    115      35.35  SWRN  SCALSEP    19.1   39.0   58.8                     4.4                      8.9                 13.3
           17    116     115.54  SWRN  SCALSEP    19.1   39.0   58.8                     4.4                      8.9                 13.3
           17    117     509.27  SWRN  SPE        41.5   61.0   79.3                     4.0                      8.0                 12.1
           17    118     177.91  SWRN  SPE        41.5   61.0   79.3                     4.0                      8.0                 12.1
           17    119     304.06  AGRL  SPE        59.3   77.0   89.9                     4.0                      8.0                 12.1
           17    120     313.04  AGRL  SPE        59.3   77.0   89.9                     4.0                      8.0                 12.1
           17    121     313.04  AGRL  SPE        59.3   77.0   89.9                     4.0                      8.0                 12.1
           18    122     967.83  AGRC  SCALSEP    42.6   62.0   80.1                     4.4                      8.9                 13.3
           18    123     303.69  AGRC  SCALSEP    42.6   62.0   80.1                     4.4                      8.9                 13.3
           18    124     129.39  AGRC  SMB        42.6   62.0   80.1                     4.0                      7.9                 11.9
           18    125     274.38  AGRC  SMB        42.6   62.0   80.1                     4.0                      7.9                 11.9
           18    126     371.95  AGRC  SPESMB     64.3   81.0   92.0                     4.0                      8.0                 12.1
           18    127    3509.26  FRSE  SMB        15.1   35.0   54.2                     4.0                      7.9                 11.9
           18    128     321.06  FRSE  SPE        35.3   55.0   74.5                     4.0                      8.0                 12.1
           18    129     268.89  FRSE  SPE        35.3   55.0   74.5                     4.0                      8.0                 12.1
           18    130     262.36  FRSE  SPE        35.3   55.0   74.5                     4.0                      8.0                 12.1
           18    131     320.23  FRSE  SPE        35.3   55.0   74.5                     4.0                      8.0                 12.1
           19    132    8314.12  AGRC  SCALSEP    42.6   62.0   80.1                     4.4                      8.9                 13.3
           19    133    2036.11  AGRC  SPESMB     64.3   81.0   92.0                     4.0                      8.0                 12.1
           19    134    8408.29  AGRC  SPESMB     64.3   81.0   92.0                     4.0                      8.0                 12.1
           19    135    1658.10  FRSE  SCALSEP    15.1   35.0   54.2                     4.4                      8.9                 13.3
           19    136    7015.36  FRSE  SCALSEP    15.1   35.0   54.2                     4.4                      8.9                 13.3
           19    137    8645.18  FRSE  SPESMB     51.2   70.0   85.7                     4.0                      8.0                 12.1
           19    138    2905.76  FRSE  SPESMB     51.2   70.0   85.7                     4.0                      8.0                 12.1
           20    139     617.47  AGRC  SCALSEP    42.6   62.0   80.1                     4.4                      8.9                 13.3
           20    140    2027.70  AGRC  SCALSEP    42.6   62.0   80.1                     4.4                      8.9                 13.3
           20    141     429.27  AGRC  SPE        54.5   73.0   87.5                     4.0                      8.0                 12.1
           20    142     152.77  AGRC  SPE        54.5   73.0   87.5                     4.0                      8.0                 12.1
           20    143     168.70  AGRC  SPE        54.5   73.0   87.5                     4.0                      8.0                 12.1
           20    144     173.26  AGRC  SPE        54.5   73.0   87.5                     4.0                      8.0                 12.1
           20    145     187.32  AGRC  SPESMB     64.3   81.0   92.0                     4.0                      8.0                 12.1
           20    146     651.61  AGRC  SPESMB     64.3   81.0   92.0                     4.0                      8.0                 12.1
           20    147    1798.17  FRSE  SCALSEP    15.1   35.0   54.2                     4.4                      8.9                 13.3
           20    148    1752.93  FRSE  SCALSEP    15.1   35.0   54.2                     4.4                      8.9                 13.3
           20    149    1442.45  FRSE  SCALSEP    15.1   35.0   54.2                     4.4                      8.9                 13.3
           20    150    3484.29  FRSE  SCALSEP    15.1   35.0   54.2                     4.4                      8.9                 13.3
           20    151    4323.40  FRSE  SMB        15.1   35.0   54.2                     4.0                      7.9                 11.9
           20    152    1278.32  FRSE  SMB        15.1   35.0   54.2                     4.0                      7.9                 11.9
           20    153     739.80  FRSE  SPE        35.3   55.0   74.5                     4.0                      8.0                 12.1
           20    154     590.54  FRSE  SPE        35.3   55.0   74.5                     4.0                      8.0                 12.1
           20    155     706.28  FRSE  SPE        35.3   55.0   74.5                     4.0                      8.0                 12.1
           20    156     975.68  FRSE  SPE        35.3   55.0   74.5                     4.0                      8.0                 12.1
           21    157    7050.17  AGRC  SCALSEP    42.6   62.0   80.1                     4.4                      8.9                 13.3
           21    158    3291.32  AGRC  SPESMB     64.3   81.0   92.0                     4.0                      8.0                 12.1
           21    159    4577.27  FRSE  SCALSEP    15.1   35.0   54.2                     4.4                      8.9                 13.3
           21    160    2095.14  FRSE  SPE        35.3   55.0   74.5                     4.0                      8.0                 12.1
           21    161    3203.33  FRSE  SPE        35.3   55.0   74.5                     4.0                      8.0                 12.1
           21    162    1657.58  FRSE  SPE        35.3   55.0   74.5                     4.0                      8.0                 12.1
           22    163     942.62  AGRC  SMB        42.6   62.0   80.1                     4.0                      7.9                 11.9
           22    164    2648.04  AGRC  SPESMB     64.3   81.0   92.0                     4.0                      8.0                 12.1
           22    165     525.85  FRSE  SCALSEP    15.1   35.0   54.2                     4.4                      8.9                 13.3
           22    166     155.28  FRSE  SCALSEP    15.1   35.0   54.2                     4.4                      8.9                 13.3
           22    167     140.49  FRSE  SCALSEP    15.1   35.0   54.2                     4.4                      8.9                 13.3
           22    168     856.19  FRSE  SMB        15.1   35.0   54.2                     4.0                      7.9                 11.9
           22    169     370.79  FRSE  SPE        35.3   55.0   74.5                     4.0                      8.0                 12.1
           22    170     583.24  FRSE  SPE        35.3   55.0   74.5                     4.0                      8.0                 12.1
           22    171     553.05  FRSE  SPE        35.3   55.0   74.5                     4.0                      8.0                 12.1
           22    172     524.43  FRSE  SPE        35.3   55.0   74.5                     4.0                      8.0                 12.1
           22    173    1093.01  FRSE  SPESMB     51.2   70.0   85.7                     4.0                      8.0                 12.1
           23    174    2562.86  AGRC  SCALSEP    42.6   62.0   80.1                     4.4                      8.9                 13.3
           23    175    1314.99  AGRC  SPE        54.5   73.0   87.5                     4.0                      8.0                 12.1
           23    176     481.17  AGRC  SPE        54.5   73.0   87.5                     4.0                      8.0                 12.1
           23    177     436.03  AGRC  SPE        54.5   73.0   87.5                     4.0                      8.0                 12.1
           23    178    2509.16  AGRC  SPESMB     64.3   81.0   92.0                     4.0                      8.0                 12.1
           23    179    3299.43  FRSE  SCALSEP    15.1   35.0   54.2                     4.4                      8.9                 13.3
           23    180    1284.67  FRSE  SFER       35.3   55.0   74.5                     7.0                     14.1                 21.1
           23    181     457.99  FRSE  SFER       35.3   55.0   74.5                     7.0                     14.1                 21.1
           23    182     361.47  FRSE  SFER       35.3   55.0   74.5                     7.0                     14.1                 21.1
           23    183     899.84  FRSE  SPE        35.3   55.0   74.5                     4.0                      8.0                 12.1
           23    184     945.60  FRSE  SPE        35.3   55.0   74.5                     4.0                      8.0                 12.1
           23    185     772.85  FRSE  SPE        35.3   55.0   74.5                     4.0                      8.0                 12.1
           23    186    1062.74  FRSE  SPE        35.3   55.0   74.5                     4.0                      8.0                 12.1
           23    187    1300.93  FRSE  SPE        35.3   55.0   74.5                     4.0                      8.0                 12.1
           24    188     671.33  FRSE  SCALSEP    15.1   35.0   54.2                     4.4                      8.9                 13.3
           24    189    2217.81  FRSE  SCALSEP    15.1   35.0   54.2                     4.4                      8.9                 13.3
           24    190    1228.58  FRSE  SPE        35.3   55.0   74.5                     4.0                      8.0                 12.1
           24    191    1460.73  FRSE  SPE        35.3   55.0   74.5                     4.0                      8.0                 12.1
           24    192    1891.83  FRSE  SPE        35.3   55.0   74.5                     4.0                      8.0                 12.1
           24    193    1280.03  FRSE  SPE        35.3   55.0   74.5                     4.0                      8.0                 12.1
           25    194     605.87  AGRC  SFER       54.5   73.0   87.5                     7.0                     14.1                 21.1
           25    195    1995.81  AGRC  SFER       54.5   73.0   87.5                     7.0                     14.1                 21.1
           25    196    4791.06  AGRC  SPESMB     64.3   81.0   92.0                     4.0                      8.0                 12.1
           25    197    2753.00  FRSE  SFER       35.3   55.0   74.5                     7.0                     14.1                 21.1
           25    198     799.85  FRSE  SFER       35.3   55.0   74.5                     7.0                     14.1                 21.1
           25    199     974.09  FRSE  SFER       35.3   55.0   74.5                     7.0                     14.1                 21.1
           25    200     850.19  FRSE  SPE        35.3   55.0   74.5                     4.0                      8.0                 12.1
           25    201     923.49  FRSE  SPE        35.3   55.0   74.5                     4.0                      8.0                 12.1
           25    202     942.04  FRSE  SPE        35.3   55.0   74.5                     4.0                      8.0                 12.1
           25    203    1635.05  FRSE  SPE        35.3   55.0   74.5                     4.0                      8.0                 12.1
           25    204    4493.23  FRSE  SPESMB     51.2   70.0   85.7                     4.0                      8.0                 12.1
           26    205   17646.53  AGRC  SPESMB     64.3   81.0   92.0                     4.0                      8.0                 12.1
           26    206   32174.40  FRSE  SPESMB     51.2   70.0   85.7                     4.0                      8.0                 12.1
           27    207     332.27  AGRC  SCALSEP    42.6   62.0   80.1                     4.4                      8.9                 13.3
           27    208    1276.19  AGRC  SCALSEP    42.6   62.0   80.1                     4.4                      8.9                 13.3
           27    209     270.13  AGRC  SPE        54.5   73.0   87.5                     4.0                      8.0                 12.1
           27    210     531.76  AGRC  SPE        54.5   73.0   87.5                     4.0                      8.0                 12.1
           27    211     264.53  AGRC  SPE        54.5   73.0   87.5                     4.0                      8.0                 12.1
           27    212     339.19  AGRC  SPE        54.5   73.0   87.5                     4.0                      8.0                 12.1
           27    213    1221.46  AGRC  SPESMB     64.3   81.0   92.0                     4.0                      8.0                 12.1
           27    214    1153.58  FRSE  SCALSEP    15.1   35.0   54.2                     4.4                      8.9                 13.3
           27    215    3156.27  FRSE  SCALSEP    15.1   35.0   54.2                     4.4                      8.9                 13.3
           27    216    1257.57  FRSE  SCALSEP    15.1   35.0   54.2                     4.4                      8.9                 13.3
           27    217    2222.90  FRSE  SPE        35.3   55.0   74.5                     4.0                      8.0                 12.1
           27    218    2374.80  FRSE  SPE        35.3   55.0   74.5                     4.0                      8.0                 12.1
           27    219    2908.39  FRSE  SPE        35.3   55.0   74.5                     4.0                      8.0                 12.1
           27    220    1951.98  FRSE  SPE        35.3   55.0   74.5                     4.0                      8.0                 12.1
           27    221    4132.95  FRSE  SPESMB     51.2   70.0   85.7                     4.0                      8.0                 12.1

         HRU Input Summary Table 2:
          Sub   HRU   Area(ha)         SoilName Hydgrp MaxRtDpth(mm) Albedo USLE_K USLE_P USLE_LS ProfileAWC(mm) IniSoilH2O(mm)
            1      1    7807.95 SCALSEP            A            58.00   0.10   0.15   1.00    4.50      8.864          4.833
            1      2    2629.41 SCALSEP            A            58.00   0.10   0.15   1.00    2.49      8.864          4.833
            1      3    1320.07 SPESMB             C            52.00   0.10   0.26   1.00    2.49      8.045          4.387
            1      4    4577.76 SPESMB             C            52.00   0.10   0.26   1.00    4.57      8.045          4.387
            1      5   13040.25 SCALSEP            A            58.00   0.10   0.15   1.00    4.25      8.864          4.833
            1      6    5721.90 SCALSEP            A            58.00   0.10   0.15   1.00    2.47      8.864          4.833
            1      7    5359.88 SCALSEP            A            58.00   0.10   0.15   1.00    1.76      8.864          4.833
            1      8    1391.19 SPESMB             C            52.00   0.10   0.26   1.00    2.52      8.045          4.387
            1      9    5255.32 SPESMB             C            52.00   0.10   0.26   1.00    4.78      8.045          4.387
            2     10    2953.35 SCALSEP            A            58.00   0.10   0.15   1.00    4.66      8.864          4.833
            2     11     760.24 SCALSEP            A            58.00   0.10   0.15   1.00    2.52      8.864          4.833
            2     12   11121.10 SPESMB             C            52.00   0.10   0.26   1.00    5.95      8.045          4.387
            2     13    4533.36 SCALSEP            A            58.00   0.10   0.15   1.00    4.43      8.864          4.833
            2     14    1559.24 SCALSEP            A            58.00   0.10   0.15   1.00    2.49      8.864          4.833
            2     15    1445.68 SCALSEP            A            58.00   0.10   0.15   1.00    1.76      8.864          4.833
            2     16   24538.08 SPESMB             C            52.00   0.10   0.26   1.00    6.72      8.045          4.387
            3     17    5295.26 SCALSEP            A            58.00   0.10   0.15   1.00    4.68      8.864          4.833
            3     18    1311.11 SCALSEP            A            58.00   0.10   0.15   1.00    2.49      8.864          4.833
            3     19    1824.95 SMB                A            52.00   0.10   0.20   1.00    5.82      7.947          4.333
            3     20    2329.76 SCALSEP            A            58.00   0.10   0.15   1.00    2.49      8.864          4.833
            3     21    8111.42 SCALSEP            A            58.00   0.10   0.15   1.00    4.73      8.864          4.833
            3     22    1917.44 SPE                B            52.00   0.10   0.32   1.00    4.50      8.045          4.387
            3     23    1494.70 SPE                B            52.00   0.10   0.32   1.00    0.46      8.045          4.387
            3     24    1329.10 SPE                B            52.00   0.10   0.32   1.00    1.25      8.045          4.387
            4     25    1590.64 SCALSEP            A            58.00   0.10   0.15   1.00    2.52      8.864          4.833
            4     26    4674.49 SCALSEP            A            58.00   0.10   0.15   1.00    3.97      8.864          4.833
            4     27    1254.90 SPESMB             C            52.00   0.10   0.26   1.00    4.41      8.045          4.387
            4     28     313.67 SPESMB             C            52.00   0.10   0.26   1.00    2.52      8.045          4.387
            4     29    1301.28 SCALSEP            A            58.00   0.10   0.15   1.00    1.76      8.864          4.833
            4     30    4569.03 SCALSEP            A            58.00   0.10   0.15   1.00    4.05      8.864          4.833
            4     31    1642.33 SCALSEP            A            58.00   0.10   0.15   1.00    2.49      8.864          4.833
            5     32    7365.43 SPESMB             C            52.00   0.10   0.26   1.00    7.62      8.045          4.387
            5     33    2317.73 SBR                A           100.00   0.10   0.17   1.00    9.74     15.472          8.436
            5     34    7719.44 SPESMB             C            52.00   0.10   0.26   1.00    8.01      8.045          4.387
            5     35   20652.69 SPESMB             C            52.00   0.10   0.26   1.00    7.78      8.045          4.387
            6     36    1467.40 SCALSEP            A            58.00   0.10   0.15   1.00    5.06      8.864          4.833
            6     37    1036.29 SMB                A            52.00   0.10   0.20   1.00    6.75      7.947          4.333
            6     38    3353.23 SPESMB             C            52.00   0.10   0.26   1.00    6.32      8.045          4.387
            6     39    2534.41 SMB                A            52.00   0.10   0.20   1.00    6.98      7.947          4.333
            6     40    2606.90 SPESMB             C            52.00   0.10   0.26   1.00    6.80      8.045          4.387
            6     41    1519.24 SCALSEP            A            58.00   0.10   0.15   1.00    5.24      8.864          4.833
            6     42     730.36 SMB                A            52.00   0.10   0.20   1.00    6.80      7.947          4.333
            6     43    2370.04 SPESMB             C            52.00   0.10   0.26   1.00    6.45      8.045          4.387
            7     44    6186.75 SCALSEP            A            58.00   0.10   0.15   1.00    4.91      8.864          4.833
            7     45    1601.55 SCALSEP            A            58.00   0.10   0.15   1.00    2.52      8.864          4.833
            7     46    5944.02 SCALSEP            A            58.00   0.10   0.15   1.00    4.89      8.864          4.833
            7     47    1745.25 SCALSEP            A            58.00   0.10   0.15   1.00    2.49      8.864          4.833
            8     48    2076.39 SBR                A           100.00   0.10   0.17   1.00    6.55     15.472          8.436
            8     49   10736.54 SPESMB             C            52.00   0.10   0.26   1.00    6.47      8.045          4.387
            8     50    7914.33 SBR                A           100.00   0.10   0.17   1.00    6.42     15.472          8.436
            8     51   15120.74 SPESMB             C            52.00   0.10   0.26   1.00    7.05      8.045          4.387
            9     52    7776.94 SPESMB             C            52.00   0.10   0.26   1.00    6.85      8.045          4.387
            9     53    1795.61 SBR                A           100.00   0.10   0.17   1.00    7.31     15.472          8.436
            9     54    4497.44 SPESMB             C            52.00   0.10   0.26   1.00    7.96      8.045          4.387
            9     55    4735.24 SBR                A           100.00   0.10   0.17   1.00    6.85     15.472          8.436
            9     56   15489.04 SPESMB             C            52.00   0.10   0.26   1.00    7.44      8.045          4.387
           10     57    1699.84 SBRSPE             C            76.00   0.10   0.25   1.00    5.08     11.758          6.411
           10     58    4694.31 SPESMB             C            52.00   0.10   0.26   1.00    5.27      8.045          4.387
           10     59   10301.29 SBRSPE             C            76.00   0.10   0.25   1.00    5.17     11.758          6.411
           10     60   15041.46 SPESMB             C            52.00   0.10   0.26   1.00    5.32      8.045          4.387
           11     61    3812.90 SCALSEP            A            58.00   0.10   0.15   1.00    7.96      8.864          4.833
           11     62    3551.23 SPESMB             C            52.00   0.10   0.26   1.00    7.03      8.045          4.387
           11     63    4149.98 SCALSEP            A            58.00   0.10   0.15   1.00    7.16      8.864          4.833
           11     64    7354.13 SPESMB             C            52.00   0.10   0.26   1.00    6.57      8.045          4.387
           12     65    1928.30 SMB                A            52.00   0.10   0.20   1.00    8.04      7.947          4.333
           12     66    3392.27 SPESMB             C            52.00   0.10   0.26   1.00    5.51      8.045          4.387
           12     67    4547.41 SMB                A            52.00   0.10   0.20   1.00    9.82      7.947          4.333
           12     68    6293.47 SPESMB             C            52.00   0.10   0.26   1.00    5.95      8.045          4.387
           13     69    2239.12 SCALSEP            A            58.00   0.10   0.15   1.00    8.01      8.864          4.833
           13     70    3319.24 SPESMB             C            52.00   0.10   0.26   1.00    7.49      8.045          4.387
           13     71    6024.31 SCALSEP            A            58.00   0.10   0.15   1.00    8.78      8.864          4.833
           13     72    7601.78 SCALSEP            A            58.00   0.10   0.15   1.00    7.86      8.864          4.833
           13     73    3295.15 SPESMB             C            52.00   0.10   0.26   1.00    7.88      8.045          4.387
           14     74     490.66 SCALSEP            A            58.00   0.10   0.15   1.00    3.73      8.864          4.833
           14     75     314.50 SCALSEP            A            58.00   0.10   0.15   1.00    2.49      8.864          4.833
           14     76     285.92 SCALSEP            A            58.00   0.10   0.15   1.00    1.76      8.864          4.833
           14     77    1069.26 SMB                A            52.00   0.10   0.20   1.00    5.51      7.947          4.333
           14     78    1012.26 SPESMB             C            52.00   0.10   0.26   1.00    5.03      8.045          4.387
           14     79     271.32 SCALSEP            A            58.00   0.10   0.15   1.00    1.73      8.864          4.833
           14     80     835.93 SCALSEP            A            58.00   0.10   0.15   1.00    4.03      8.864          4.833
           14     81     312.00 SCALSEP            A            58.00   0.10   0.15   1.00    2.49      8.864          4.833
           14     82    2162.73 SMB                A            52.00   0.10   0.20   1.00    5.17      7.947          4.333
           14     83    1453.79 SMB                A            52.00   0.10   0.20   1.00    0.12      7.947          4.333
           15     84    1234.35 SCALSEP            A            58.00   0.10   0.15   1.00    4.52      8.864          4.833
           15     85     375.61 SCALSEP            A            58.00   0.10   0.15   1.00    2.52      8.864          4.833
           15     86    1143.24 SPE                B            52.00   0.10   0.32   1.00    4.41      8.045          4.387
           15     87     426.31 SPE                B            52.00   0.10   0.32   1.00    2.49      8.045          4.387
           15     88     413.86 SPE                B            52.00   0.10   0.32   1.00    1.73      8.045          4.387
           15     89    3215.11 SPESMB             C            52.00   0.10   0.26   1.00    5.24      8.045          4.387
           15     90     520.88 SCALSEP            A            58.00   0.10   0.15   1.00    2.49      8.864          4.833
           15     91    1744.23 SCALSEP            A            58.00   0.10   0.15   1.00    4.57      8.864          4.833
           15     92     819.28 SMB                A            52.00   0.10   0.20   1.00    4.84      7.947          4.333
           15     93    1154.13 SMB                A            52.00   0.10   0.20   1.00    0.12      7.947          4.333
           15     94     762.23 SPE                B            52.00   0.10   0.32   1.00    1.33      8.045          4.387
           15     95    1358.67 SPE                B            52.00   0.10   0.32   1.00    4.30      8.045          4.387
           15     96     734.75 SPE                B            52.00   0.10   0.32   1.00    1.71      8.045          4.387
           15     97     632.36 SPE                B            52.00   0.10   0.32   1.00    2.47      8.045          4.387
           15     98    4442.26 SPESMB             C            52.00   0.10   0.26   1.00    5.29      8.045          4.387
           16     99     124.29 SCALSEP            A            58.00   0.10   0.15   1.00    2.47      8.864          4.833
           16    100     236.01 SCALSEP            A            58.00   0.10   0.15   1.00    4.36      8.864          4.833
           16    101     108.43 SCALSEP            A            58.00   0.10   0.15   1.00    1.78      8.864          4.833
           16    102      88.41 SCALSEP            A            58.00   0.10   0.15   1.00    1.73      8.864          4.833
           16    103     157.63 SCALSEP            A            58.00   0.10   0.15   1.00    3.39      8.864          4.833
           16    104      85.20 SCALSEP            A            58.00   0.10   0.15   1.00    2.47      8.864          4.833
           16    105     946.00 SMB                A            52.00   0.10   0.20   1.00    0.08      7.947          4.333
           16    106     245.69 SPE                B            52.00   0.10   0.32   1.00    1.73      8.045          4.387
           16    107     169.93 SPE                B            52.00   0.10   0.32   1.00    1.44      8.045          4.387
           16    108     150.67 SPE                B            52.00   0.10   0.32   1.00    2.42      8.045          4.387
           17    109     188.42 SPE                B            52.00   0.10   0.32   1.00    0.48      8.045          4.387
           17    110     209.50 SPE                B            52.00   0.10   0.32   1.00    1.28      8.045          4.387
           17    111     351.43 SPE                B            52.00   0.10   0.32   1.00    3.67      8.045          4.387
           17    112     173.96 SPE                B            52.00   0.10   0.32   1.00    2.49      8.045          4.387
           17    113     169.90 SPE                B            52.00   0.10   0.32   1.00    1.71      8.045          4.387
           17    114      47.65 SCALSEP            A            58.00   0.10   0.15   1.00    2.47      8.864          4.833
           17    115      35.35 SCALSEP            A            58.00   0.10   0.15   1.00    1.78      8.864          4.833
           17    116     115.54 SCALSEP            A            58.00   0.10   0.15   1.00    3.88      8.864          4.833
           17    117     509.27 SPE                B            52.00   0.10   0.32   1.00    3.88      8.045          4.387
           17    118     177.91 SPE                B            52.00   0.10   0.32   1.00    2.49      8.045          4.387
           17    119     304.06 SPE                B            52.00   0.10   0.32   1.00    3.82      8.045          4.387
           17    120     313.04 SPE                B            52.00   0.10   0.32   1.00    0.46      8.045          4.387
           17    121     313.04 SPE                B            52.00   0.10   0.32   1.00    1.28      8.045          4.387
           18    122     967.83 SCALSEP            A            58.00   0.10   0.15   1.00    3.99      8.864          4.833
           18    123     303.69 SCALSEP            A            58.00   0.10   0.15   1.00    2.49      8.864          4.833
           18    124     129.39 SMB                A            52.00   0.10   0.20   1.00    3.64      7.947          4.333
           18    125     274.38 SMB                A            52.00   0.10   0.20   1.00    0.08      7.947          4.333
           18    126     371.95 SPESMB             C            52.00   0.10   0.26   1.00    4.82      8.045          4.387
           18    127    3509.26 SMB                A            52.00   0.10   0.20   1.00    0.07      7.947          4.333
           18    128     321.06 SPE                B            52.00   0.10   0.32   1.00    3.33      8.045          4.387
           18    129     268.89 SPE                B            52.00   0.10   0.32   1.00    2.45      8.045          4.387
           18    130     262.36 SPE                B            52.00   0.10   0.32   1.00    1.39      8.045          4.387
           18    131     320.23 SPE                B            52.00   0.10   0.32   1.00    1.71      8.045          4.387
           19    132    8314.12 SCALSEP            A            58.00   0.10   0.15   1.00    5.90      8.864          4.833
           19    133    2036.11 SPESMB             C            52.00   0.10   0.26   1.00    2.49      8.045          4.387
           19    134    8408.29 SPESMB             C            52.00   0.10   0.26   1.00    5.01      8.045          4.387
           19    135    1658.10 SCALSEP            A            58.00   0.10   0.15   1.00    2.52      8.864          4.833
           19    136    7015.36 SCALSEP            A            58.00   0.10   0.15   1.00    4.96      8.864          4.833
           19    137    8645.18 SPESMB             C            52.00   0.10   0.26   1.00    4.57      8.045          4.387
           19    138    2905.76 SPESMB             C            52.00   0.10   0.26   1.00    2.49      8.045          4.387
           20    139     617.47 SCALSEP            A            58.00   0.10   0.15   1.00    2.52      8.864          4.833
           20    140    2027.70 SCALSEP            A            58.00   0.10   0.15   1.00    4.52      8.864          4.833
           20    141     429.27 SPE                B            52.00   0.10   0.32   1.00    4.27      8.045          4.387
           20    142     152.77 SPE                B            52.00   0.10   0.32   1.00    1.36      8.045          4.387
           20    143     168.70 SPE                B            52.00   0.10   0.32   1.00    1.73      8.045          4.387
           20    144     173.26 SPE                B            52.00   0.10   0.32   1.00    2.49      8.045          4.387
           20    145     187.32 SPESMB             C            52.00   0.10   0.26   1.00    2.49      8.045          4.387
           20    146     651.61 SPESMB             C            52.00   0.10   0.26   1.00    4.48      8.045          4.387
           20    147    1798.17 SCALSEP            A            58.00   0.10   0.15   1.00    1.73      8.864          4.833
           20    148    1752.93 SCALSEP            A            58.00   0.10   0.15   1.00    2.49      8.864          4.833
           20    149    1442.45 SCALSEP            A            58.00   0.10   0.15   1.00    1.39      8.864          4.833
           20    150    3484.29 SCALSEP            A            58.00   0.10   0.15   1.00    3.79      8.864          4.833
           20    151    4323.40 SMB                A            52.00   0.10   0.20   1.00    0.09      7.947          4.333
           20    152    1278.32 SMB                A            52.00   0.10   0.20   1.00    3.58      7.947          4.333
           20    153     739.80 SPE                B            52.00   0.10   0.32   1.00    1.33      8.045          4.387
           20    154     590.54 SPE                B            52.00   0.10   0.32   1.00    2.47      8.045          4.387
           20    155     706.28 SPE                B            52.00   0.10   0.32   1.00    1.71      8.045          4.387
           20    156     975.68 SPE                B            52.00   0.10   0.32   1.00    3.64      8.045          4.387
           21    157    7050.17 SCALSEP            A            58.00   0.10   0.15   1.00    7.11      8.864          4.833
           21    158    3291.32 SPESMB             C            52.00   0.10   0.26   1.00    6.72      8.045          4.387
           21    159    4577.27 SCALSEP            A            58.00   0.10   0.15   1.00    6.98      8.864          4.833
           21    160    2095.14 SPE                B            52.00   0.10   0.32   1.00    1.31      8.045          4.387
           21    161    3203.33 SPE                B            52.00   0.10   0.32   1.00    4.21      8.045          4.387
           21    162    1657.58 SPE                B            52.00   0.10   0.32   1.00    1.71      8.045          4.387
           22    163     942.62 SMB                A            52.00   0.10   0.20   1.00    6.24      7.947          4.333
           22    164    2648.04 SPESMB             C            52.00   0.10   0.26   1.00    6.55      8.045          4.387
           22    165     525.85 SCALSEP            A            58.00   0.10   0.15   1.00    4.59      8.864          4.833
           22    166     155.28 SCALSEP            A            58.00   0.10   0.15   1.00    2.47      8.864          4.833
           22    167     140.49 SCALSEP            A            58.00   0.10   0.15   1.00    1.76      8.864          4.833
           22    168     856.19 SMB                A            52.00   0.10   0.20   1.00    5.10      7.947          4.333
           22    169     370.79 SPE                B            52.00   0.10   0.32   1.00    1.69      8.045          4.387
           22    170     583.24 SPE                B            52.00   0.10   0.32   1.00    1.28      8.045          4.387
           22    171     553.05 SPE                B            52.00   0.10   0.32   1.00    0.46      8.045          4.387
           22    172     524.43 SPE                B            52.00   0.10   0.32   1.00    3.99      8.045          4.387
           22    173    1093.01 SPESMB             C            52.00   0.10   0.26   1.00    5.41      8.045          4.387
           23    174    2562.86 SCALSEP            A            58.00   0.10   0.15   1.00    6.02      8.864          4.833
           23    175    1314.99 SPE                B            52.00   0.10   0.32   1.00    4.21      8.045          4.387
           23    176     481.17 SPE                B            52.00   0.10   0.32   1.00    2.52      8.045          4.387
           23    177     436.03 SPE                B            52.00   0.10   0.32   1.00    1.73      8.045          4.387
           23    178    2509.16 SPESMB             C            52.00   0.10   0.26   1.00    5.78      8.045          4.387
           23    179    3299.43 SCALSEP            A            58.00   0.10   0.15   1.00    6.10      8.864          4.833
           23    180    1284.67 SFER               B            90.00   0.10   0.28   1.00    3.92     14.094          7.685
           23    181     457.99 SFER               B            90.00   0.10   0.28   1.00    2.52     14.094          7.685
           23    182     361.47 SFER               B            90.00   0.10   0.28   1.00    1.76     14.094          7.685
           23    183     899.84 SPE                B            52.00   0.10   0.32   1.00    0.44      8.045          4.387
           23    184     945.60 SPE                B            52.00   0.10   0.32   1.00    3.46      8.045          4.387
           23    185     772.85 SPE                B            52.00   0.10   0.32   1.00    2.45      8.045          4.387
           23    186    1062.74 SPE                B            52.00   0.10   0.32   1.00    1.69      8.045          4.387
           23    187    1300.93 SPE                B            52.00   0.10   0.32   1.00    1.33      8.045          4.387
           24    188     671.33 SCALSEP            A            58.00   0.10   0.15   1.00    2.52      8.864          4.833
           24    189    2217.81 SCALSEP            A            58.00   0.10   0.15   1.00    4.10      8.864          4.833
           24    190    1228.58 SPE                B            52.00   0.10   0.32   1.00    1.69      8.045          4.387
           24    191    1460.73 SPE                B            52.00   0.10   0.32   1.00    0.48      8.045          4.387
           24    192    1891.83 SPE                B            52.00   0.10   0.32   1.00    1.31      8.045          4.387
           24    193    1280.03 SPE                B            52.00   0.10   0.32   1.00    3.75      8.045          4.387
           25    194     605.87 SFER               B            90.00   0.10   0.28   1.00    2.49     14.094          7.685
           25    195    1995.81 SFER               B            90.00   0.10   0.28   1.00    5.01     14.094          7.685
           25    196    4791.06 SPESMB             C            52.00   0.10   0.26   1.00    5.78      8.045          4.387
           25    197    2753.00 SFER               B            90.00   0.10   0.28   1.00    4.23     14.094          7.685
           25    198     799.85 SFER               B            90.00   0.10   0.28   1.00    1.78     14.094          7.685
           25    199     974.09 SFER               B            90.00   0.10   0.28   1.00    2.49     14.094          7.685
           25    200     850.19 SPE                B            52.00   0.10   0.32   1.00    2.47      8.045          4.387
           25    201     923.49 SPE                B            52.00   0.10   0.32   1.00    1.36      8.045          4.387
           25    202     942.04 SPE                B            52.00   0.10   0.32   1.00    1.71      8.045          4.387
[...]
           14     81     312.00        31.000         0.048   1000.000   0.020      750.000  0.050    0.000     0.000
           14     82    2162.73        31.000         0.048   1000.000   0.020      750.000  0.050    0.000     0.000
           14     83    1453.79        31.000         0.048   1000.000   0.020      750.000  0.050    0.000     0.000
           15     84    1234.35        31.000         0.048   1000.000   0.020      750.000  0.050    0.000     0.000
           15     85     375.61        31.000         0.048   1000.000   0.020      750.000  0.050    0.000     0.000
           15     86    1143.24        31.000         0.048   1000.000   0.020      750.000  0.050    0.000     0.000
           15     87     426.31        31.000         0.048   1000.000   0.020      750.000  0.050    0.000     0.000
           15     88     413.86        31.000         0.048   1000.000   0.020      750.000  0.050    0.000     0.000
           15     89    3215.11        31.000         0.048   1000.000   0.020      750.000  0.050    0.000     0.000
           15     90     520.88        31.000         0.048   1000.000   0.020      750.000  0.050    0.000     0.000
           15     91    1744.23        31.000         0.048   1000.000   0.020      750.000  0.050    0.000     0.000
           15     92     819.28        31.000         0.048   1000.000   0.020      750.000  0.050    0.000     0.000
           15     93    1154.13        31.000         0.048   1000.000   0.020      750.000  0.050    0.000     0.000
           15     94     762.23        31.000         0.048   1000.000   0.020      750.000  0.050    0.000     0.000
           15     95    1358.67        31.000         0.048   1000.000   0.020      750.000  0.050    0.000     0.000
           15     96     734.75        31.000         0.048   1000.000   0.020      750.000  0.050    0.000     0.000
           15     97     632.36        31.000         0.048   1000.000   0.020      750.000  0.050    0.000     0.000
           15     98    4442.26        31.000         0.048   1000.000   0.020      750.000  0.050    0.000     0.000
           16     99     124.29        31.000         0.048   1000.000   0.020      750.000  0.050    0.000     0.000
           16    100     236.01        31.000         0.048   1000.000   0.020      750.000  0.050    0.000     0.000
           16    101     108.43        31.000         0.048   1000.000   0.020      750.000  0.050    0.000     0.000
           16    102      88.41        31.000         0.048   1000.000   0.020      750.000  0.050    0.000     0.000
           16    103     157.63        31.000         0.048   1000.000   0.020      750.000  0.050    0.000     0.000
           16    104      85.20        31.000         0.048   1000.000   0.020      750.000  0.050    0.000     0.000
           16    105     946.00        31.000         0.048   1000.000   0.020      750.000  0.050    0.000     0.000
           16    106     245.69        31.000         0.048   1000.000   0.020      750.000  0.050    0.000     0.000
           16    107     169.93        31.000         0.048   1000.000   0.020      750.000  0.050    0.000     0.000
           16    108     150.67        31.000         0.048   1000.000   0.020      750.000  0.050    0.000     0.000
           17    109     188.42        31.000         0.048   1000.000   0.020      750.000  0.050    0.000     0.000
           17    110     209.50        31.000         0.048   1000.000   0.020      750.000  0.050    0.000     0.000
           17    111     351.43        31.000         0.048   1000.000   0.020      750.000  0.050    0.000     0.000
           17    112     173.96        31.000         0.048   1000.000   0.020      750.000  0.050    0.000     0.000
           17    113     169.90        31.000         0.048   1000.000   0.020      750.000  0.050    0.000     0.000
           17    114      47.65        31.000         0.048   1000.000   0.020      750.000  0.050    0.000     0.000
           17    115      35.35        31.000         0.048   1000.000   0.020      750.000  0.050    0.000     0.000
           17    116     115.54        31.000         0.048   1000.000   0.020      750.000  0.050    0.000     0.000
           17    117     509.27        31.000         0.048   1000.000   0.020      750.000  0.050    0.000     0.000
           17    118     177.91        31.000         0.048   1000.000   0.020      750.000  0.050    0.000     0.000
           17    119     304.06        31.000         0.048   1000.000   0.020      750.000  0.050    0.000     0.000
           17    120     313.04        31.000         0.048   1000.000   0.020      750.000  0.050    0.000     0.000
           17    121     313.04        31.000         0.048   1000.000   0.020      750.000  0.050    0.000     0.000
           18    122     967.83        31.000         0.048   1000.000   0.020      750.000  0.050    0.000     0.000
           18    123     303.69        31.000         0.048   1000.000   0.020      750.000  0.050    0.000     0.000
           18    124     129.39        31.000         0.048   1000.000   0.020      750.000  0.050    0.000     0.000
           18    125     274.38        31.000         0.048   1000.000   0.020      750.000  0.050    0.000     0.000
           18    126     371.95        31.000         0.048   1000.000   0.020      750.000  0.050    0.000     0.000
           18    127    3509.26        31.000         0.048   1000.000   0.020      750.000  0.050    0.000     0.000
           18    128     321.06        31.000         0.048   1000.000   0.020      750.000  0.050    0.000     0.000
           18    129     268.89        31.000         0.048   1000.000   0.020      750.000  0.050    0.000     0.000
           18    130     262.36        31.000         0.048   1000.000   0.020      750.000  0.050    0.000     0.000
           18    131     320.23        31.000         0.048   1000.000   0.020      750.000  0.050    0.000     0.000
           19    132    8314.12        31.000         0.048   1000.000   0.020      750.000  0.050    0.000     0.000
           19    133    2036.11        31.000         0.048   1000.000   0.020      750.000  0.050    0.000     0.000
           19    134    8408.29        31.000         0.048   1000.000   0.020      750.000  0.050    0.000     0.000
           19    135    1658.10        31.000         0.048   1000.000   0.020      750.000  0.050    0.000     0.000
           19    136    7015.36        31.000         0.048   1000.000   0.020      750.000  0.050    0.000     0.000
           19    137    8645.18        31.000         0.048   1000.000   0.020      750.000  0.050    0.000     0.000
           19    138    2905.76        31.000         0.048   1000.000   0.020      750.000  0.050    0.000     0.000
           20    139     617.47        31.000         0.048   1000.000   0.020      750.000  0.050    0.000     0.000
           20    140    2027.70        31.000         0.048   1000.000   0.020      750.000  0.050    0.000     0.000
           20    141     429.27        31.000         0.048   1000.000   0.020      750.000  0.050    0.000     0.000
           20    142     152.77        31.000         0.048   1000.000   0.020      750.000  0.050    0.000     0.000
           20    143     168.70        31.000         0.048   1000.000   0.020      750.000  0.050    0.000     0.000
           20    144     173.26        31.000         0.048   1000.000   0.020      750.000  0.050    0.000     0.000
           20    145     187.32        31.000         0.048   1000.000   0.020      750.000  0.050    0.000     0.000
           20    146     651.61        31.000         0.048   1000.000   0.020      750.000  0.050    0.000     0.000
           20    147    1798.17        31.000         0.048   1000.000   0.020      750.000  0.050    0.000     0.000
           20    148    1752.93        31.000         0.048   1000.000   0.020      750.000  0.050    0.000     0.000
           20    149    1442.45        31.000         0.048   1000.000   0.020      750.000  0.050    0.000     0.000
           20    150    3484.29        31.000         0.048   1000.000   0.020      750.000  0.050    0.000     0.000
           20    151    4323.40        31.000         0.048   1000.000   0.020      750.000  0.050    0.000     0.000
           20    152    1278.32        31.000         0.048   1000.000   0.020      750.000  0.050    0.000     0.000
           20    153     739.80        31.000         0.048   1000.000   0.020      750.000  0.050    0.000     0.000
           20    154     590.54        31.000         0.048   1000.000   0.020      750.000  0.050    0.000     0.000
           20    155     706.28        31.000         0.048   1000.000   0.020      750.000  0.050    0.000     0.000
           20    156     975.68        31.000         0.048   1000.000   0.020      750.000  0.050    0.000     0.000
           21    157    7050.17        31.000         0.048   1000.000   0.020      750.000  0.050    0.000     0.000
           21    158    3291.32        31.000         0.048   1000.000   0.020      750.000  0.050    0.000     0.000
           21    159    4577.27        31.000         0.048   1000.000   0.020      750.000  0.050    0.000     0.000
           21    160    2095.14        31.000         0.048   1000.000   0.020      750.000  0.050    0.000     0.000
           21    161    3203.33        31.000         0.048   1000.000   0.020      750.000  0.050    0.000     0.000
           21    162    1657.58        31.000         0.048   1000.000   0.020      750.000  0.050    0.000     0.000
           22    163     942.62        31.000         0.048   1000.000   0.020      750.000  0.050    0.000     0.000
           22    164    2648.04        31.000         0.048   1000.000   0.020      750.000  0.050    0.000     0.000
           22    165     525.85        31.000         0.048   1000.000   0.020      750.000  0.050    0.000     0.000
           22    166     155.28        31.000         0.048   1000.000   0.020      750.000  0.050    0.000     0.000
           22    167     140.49        31.000         0.048   1000.000   0.020      750.000  0.050    0.000     0.000
           22    168     856.19        31.000         0.048   1000.000   0.020      750.000  0.050    0.000     0.000
           22    169     370.79        31.000         0.048   1000.000   0.020      750.000  0.050    0.000     0.000
           22    170     583.24        31.000         0.048   1000.000   0.020      750.000  0.050    0.000     0.000
           22    171     553.05        31.000         0.048   1000.000   0.020      750.000  0.050    0.000     0.000
           22    172     524.43        31.000         0.048   1000.000   0.020      750.000  0.050    0.000     0.000
           22    173    1093.01        31.000         0.048   1000.000   0.020      750.000  0.050    0.000     0.000
           23    174    2562.86        31.000         0.048   1000.000   0.020      750.000  0.050    0.000     0.000
           23    175    1314.99        31.000         0.048   1000.000   0.020      750.000  0.050    0.000     0.000
           23    176     481.17        31.000         0.048   1000.000   0.020      750.000  0.050    0.000     0.000
           23    177     436.03        31.000         0.048   1000.000   0.020      750.000  0.050    0.000     0.000
           23    178    2509.16        31.000         0.048   1000.000   0.020      750.000  0.050    0.000     0.000
           23    179    3299.43        31.000         0.048   1000.000   0.020      750.000  0.050    0.000     0.000
           23    180    1284.67        31.000         0.048   1000.000   0.020      750.000  0.050    0.000     0.000
           23    181     457.99        31.000         0.048   1000.000   0.020      750.000  0.050    0.000     0.000
           23    182     361.47        31.000         0.048   1000.000   0.020      750.000  0.050    0.000     0.000
           23    183     899.84        31.000         0.048   1000.000   0.020      750.000  0.050    0.000     0.000
           23    184     945.60        31.000         0.048   1000.000   0.020      750.000  0.050    0.000     0.000
           23    185     772.85        31.000         0.048   1000.000   0.020      750.000  0.050    0.000     0.000
           23    186    1062.74        31.000         0.048   1000.000   0.020      750.000  0.050    0.000     0.000
           23    187    1300.93        31.000         0.048   1000.000   0.020      750.000  0.050    0.000     0.000
           24    188     671.33        31.000         0.048   1000.000   0.020      750.000  0.050    0.000     0.000
           24    189    2217.81        31.000         0.048   1000.000   0.020      750.000  0.050    0.000     0.000
           24    190    1228.58        31.000         0.048   1000.000   0.020      750.000  0.050    0.000     0.000
           24    191    1460.73        31.000         0.048   1000.000   0.020      750.000  0.050    0.000     0.000
           24    192    1891.83        31.000         0.048   1000.000   0.020      750.000  0.050    0.000     0.000
           24    193    1280.03        31.000         0.048   1000.000   0.020      750.000  0.050    0.000     0.000
           25    194     605.87        31.000         0.048   1000.000   0.020      750.000  0.050    0.000     0.000
           25    195    1995.81        31.000         0.048   1000.000   0.020      750.000  0.050    0.000     0.000
           25    196    4791.06        31.000         0.048   1000.000   0.020      750.000  0.050    0.000     0.000
           25    197    2753.00        31.000         0.048   1000.000   0.020      750.000  0.050    0.000     0.000
           25    198     799.85        31.000         0.048   1000.000   0.020      750.000  0.050    0.000     0.000
           25    199     974.09        31.000         0.048   1000.000   0.020      750.000  0.050    0.000     0.000
           25    200     850.19        31.000         0.048   1000.000   0.020      750.000  0.050    0.000     0.000
           25    201     923.49        31.000         0.048   1000.000   0.020      750.000  0.050    0.000     0.000
           25    202     942.04        31.000         0.048   1000.000   0.020      750.000  0.050    0.000     0.000
           25    203    1635.05        31.000         0.048   1000.000   0.020      750.000  0.050    0.000     0.000
           25    204    4493.23        31.000         0.048   1000.000   0.020      750.000  0.050    0.000     0.000
           26    205   17646.53        31.000         0.048   1000.000   0.020      750.000  0.050    0.000     0.000
           26    206   32174.40        31.000         0.048   1000.000   0.020      750.000  0.050    0.000     0.000
           27    207     332.27        31.000         0.048   1000.000   0.020      750.000  0.050    0.000     0.000
           27    208    1276.19        31.000         0.048   1000.000   0.020      750.000  0.050    0.000     0.000
           27    209     270.13        31.000         0.048   1000.000   0.020      750.000  0.050    0.000     0.000
           27    210     531.76        31.000         0.048   1000.000   0.020      750.000  0.050    0.000     0.000
           27    211     264.53        31.000         0.048   1000.000   0.020      750.000  0.050    0.000     0.000
           27    212     339.19        31.000         0.048   1000.000   0.020      750.000  0.050    0.000     0.000
           27    213    1221.46        31.000         0.048   1000.000   0.020      750.000  0.050    0.000     0.000
           27    214    1153.58        31.000         0.048   1000.000   0.020      750.000  0.050    0.000     0.000
           27    215    3156.27        31.000         0.048   1000.000   0.020      750.000  0.050    0.000     0.000
           27    216    1257.57        31.000         0.048   1000.000   0.020      750.000  0.050    0.000     0.000
           27    217    2222.90        31.000         0.048   1000.000   0.020      750.000  0.050    0.000     0.000
           27    218    2374.80        31.000         0.048   1000.000   0.020      750.000  0.050    0.000     0.000
           27    219    2908.39        31.000         0.048   1000.000   0.020      750.000  0.050    0.000     0.000
           27    220    1951.98        31.000         0.048   1000.000   0.020      750.000  0.050    0.000     0.000
           27    221    4132.95        31.000         0.048   1000.000   0.020      750.000  0.050    0.000     0.000

         Tributary/Main Channel Characteristics
              |--------------Tributary--------------------|---------------------Main---------------------------|
          Sub  Length(km) Slope Width(m) Cond(mm/hr)     N Length(km) Slope Width(m) Depth(m) Cond(mm/hr)     N
            1       35.64 0.005    51.50      0.0000 0.014      35.64 0.005    51.50     1.52      0.0000 0.014
            2       25.32 0.007    51.36      0.0000 0.014      25.32 0.007    51.36     1.52      0.0000 0.014
            3       24.54 0.003    33.98      0.0000 0.014      24.54 0.003    65.69     1.79      0.0000 0.014
            4        1.94 0.007    26.24      0.0000 0.014       1.94 0.007    26.24     0.97      0.0000 0.014
            5       26.01 0.014    45.52      0.0000 0.014      26.01 0.014    45.52     1.40      0.0000 0.014
            6        5.76 0.005    26.59      0.0000 0.014       5.76 0.005    26.59     0.98      0.0000 0.014
            7        5.45 0.005    26.60      0.0000 0.014       5.45 0.005    26.60     0.98      0.0000 0.014
            8       19.55 0.013    43.78      0.0000 0.014      19.55 0.013    43.78     1.36      0.0000 0.014
            9       23.36 0.015    42.52      0.0000 0.014      23.36 0.015    42.52     1.34      0.0000 0.014
           10       20.21 0.007    41.09      0.0000 0.014      20.21 0.007    41.09     1.31      0.0000 0.014
           11       14.45 0.014    30.69      0.0000 0.014      14.45 0.014    30.69     1.08      0.0000 0.014
           12       18.10 0.014    27.06      0.0000 0.014      18.10 0.014    56.19     1.61      0.0000 0.014
           13       18.62 0.013    33.95      0.0000 0.014      18.62 0.013    68.47     1.84      0.0000 0.014
           14       14.91 0.001    18.02      0.0000 0.014      14.91 0.001    46.34     1.41      0.0000 0.014
           15       27.94 0.001    29.80      0.0000 0.014      27.94 0.001    83.26     2.09      0.0000 0.014
           16        1.36 0.001     8.49      0.0000 0.014       1.36 0.001   101.84     2.39      0.0000 0.014
           17        6.31 0.011     9.72      0.0000 0.014       6.31 0.011   241.30     4.25      0.0000 0.014
           18        8.78 0.001    16.03      0.0000 0.014       8.78 0.001   204.32     3.81      0.0000 0.014
           19       46.26 0.003    45.90      0.0000 0.014      46.26 0.003    73.79     1.93      0.0000 0.014
           20       18.35 0.000    32.82      0.0000 0.014      18.35 0.000   202.55     3.78      0.0000 0.014
           21       32.83 0.004    32.46      0.0000 0.014      32.83 0.004    58.20     1.65      0.0000 0.014
           22       12.85 0.001    18.41      0.0000 0.014      12.85 0.001   172.61     3.40      0.0000 0.014
           23        4.52 0.005    28.57      0.0000 0.014       4.52 0.005    28.57     1.02      0.0000 0.014
           24       11.30 0.002    19.04      0.0000 0.014      11.30 0.002   152.41     3.13      0.0000 0.014
           25       30.10 0.005    31.45      0.0000 0.014      30.10 0.005    56.48     1.62      0.0000 0.014
           26       46.73 0.005    53.74      0.0000 0.014      46.73 0.005   115.41     2.60      0.0000 0.014
           27       22.53 0.002    35.24      0.0000 0.014      22.53 0.002   143.78     3.01      0.0000 0.014
