1
    SWAT Aug 6  VER 2025/Rev 699                                                                         0/ 0/   0      0: 0: 0

    General Input/Output section (file.cio):                                        
    10/21/2025 12:00:00 AM ARCGIS-SWAT interface AV                                 
                                                                                    


       SUB      GIS  MON   AREAkm2  PRECIPmm SNOMELTmm     PETmm      ETmm      SWmm    PERCmm    SURQmm    GW_Qmm    WYLDmm  SYLDt/ha ORGNkg/ha ORGPkg/haNSURQkg/ha SOLPkg/ha SEDPkg/ha LAT Q(mm)LATNO3kg/hGWNO3kg/haCHOLAmic/LCBODU mg/L DOXQ mg/L TNO3kg/ha   QTILEmm TVAPkg/ha
BIGSUB    1        0    1.46640E+03    84.129     0.000    44.771    15.236     8.646    40.210     2.772     8.334    25.805     0.904     1.491     0.183     0.003     0.001     0.255    14.570     0.377     0.007 .00000E+00 0.000E+00 0.000E+00 0.000E+00 0.000E+00 0.000E+00
BIGSUB    2        0    1.46416E+03   165.344     0.000    46.407    14.956     8.242    59.298    35.005     9.491    74.814    51.824    57.227     7.010     0.016     0.009     9.857    30.172     0.524     0.007 .00000E+00 0.000E+00 0.000E+00 0.000E+00 0.000E+00 0.000E+00
BIGSUB    3        0    1.23322E+03    84.340     0.000    47.227    15.549     8.629    39.805     0.763     8.326    25.667     0.070     0.153     0.019     0.001     0.000     0.024    16.448     0.419     0.007 .00000E+00 0.000E+00 0.000E+00 0.000E+00 0.000E+00 0.000E+00
BIGSUB    4        0    1.15154E+03    84.355     0.000    44.938    15.377     8.780    40.415     2.151     8.398    25.516     0.463     0.810     0.099     0.002     0.001     0.137    14.837     0.387     0.007 .00000E+00 0.000E+00 0.000E+00 0.000E+00 0.000E+00 0.000E+00
BIGSUB    5        0    1.37967E+03    87.202     0.000    45.292    13.562     8.498    26.439     8.073     5.770    39.397    15.598    17.824     2.183     0.012     0.002     3.065    25.464     0.648     0.004 .00000E+00 0.000E+00 0.000E+00 0.000E+00 0.000E+00 0.000E+00
BIGSUB    6        0    1.15500E+03    83.936     0.000    47.117    15.064     8.175    28.262     4.738     5.871    33.050     2.715     3.929     0.481     0.007     0.001     0.675    22.350     0.575     0.004 .00000E+00 0.000E+00 0.000E+00 0.000E+00 0.000E+00 0.000E+00
BIGSUB    7        0    1.15506E+03    83.145     0.000    56.188    16.599     8.864    36.179     0.847     7.728    26.732     0.045     0.158     0.019     0.001     0.000     0.021    18.037     0.468     0.006 .00000E+00 0.000E+00 0.000E+00 0.000E+00 0.000E+00 0.000E+00
BIGSUB    8        0    1.35579E+03   164.836     0.000    43.536    15.248    10.115    52.507    34.485     8.350    76.973    63.859    61.591     7.545     0.017     0.009    10.546    34.009     0.705     0.007 .00000E+00 0.000E+00 0.000E+00 0.000E+00 0.000E+00 0.000E+00
BIGSUB    9        0    1.33888E+03   165.559     0.000    43.715    15.021     9.460    50.400    35.755     8.041    78.798    70.622    67.219     8.234     0.018     0.009    11.601    34.877     0.692     0.006 .00000E+00 0.000E+00 0.000E+00 0.000E+00 0.000E+00 0.000E+00
BIGSUB   10        0    1.32002E+03    86.278     0.000    44.249    14.102     9.449    30.857     8.144     6.714    36.359     9.904    14.074     1.724     0.010     0.002     2.217    21.396     0.583     0.005 .00000E+00 0.000E+00 0.000E+00 0.000E+00 0.000E+00 0.000E+00
BIGSUB   11        0    1.19677E+03    83.422     0.000    42.654    13.034     8.391    29.604     4.298     6.608    37.347     6.923     7.838     0.960     0.006     0.001     1.348    26.338     0.591     0.004 .00000E+00 0.000E+00 0.000E+00 0.000E+00 0.000E+00 0.000E+00
BIGSUB   12        0    1.15959E+03    88.102     0.000    45.828    13.520     8.006    28.964     5.849     6.375    38.149     7.965     9.565     1.172     0.008     0.002     1.648    25.826     0.596     0.004 .00000E+00 0.000E+00 0.000E+00 0.000E+00 0.000E+00 0.000E+00
BIGSUB   13        0    1.23285E+03    83.990     0.000    42.993    13.204     8.623    27.971     3.305     6.311    37.990     5.471     6.044     0.740     0.005     0.001     1.035    28.276     0.656     0.004 .00000E+00 0.000E+00 0.000E+00 0.000E+00 0.000E+00 0.000E+00
BIGSUB   14        0    1.81057E+02    62.684     0.000    57.064    15.436     8.189    27.286     0.757     6.119    17.682     0.601     0.820     0.100     0.001     0.000     0.141    10.711     0.367     0.005 .00000E+00 0.000E+00 0.000E+00 0.000E+00 0.000E+00 0.000E+00
BIGSUB   15        0    1.18740E+03    84.355     0.000    54.425    16.140     8.202    37.663     3.810     7.862    27.189     3.067     4.704     0.576     0.005     0.001     0.800    15.394     0.394     0.006 .00000E+00 0.000E+00 0.000E+00 0.000E+00 0.000E+00 0.000E+00
BIGSUB   16        0    1.23106E+02    61.945     0.000    60.682    15.905     8.262    37.015     0.066     8.248    11.824     0.001     0.006     0.001     0.000     0.000     0.001     3.382     0.119     0.007 .00000E+00 0.000E+00 0.000E+00 0.000E+00 0.000E+00 0.000E+00
BIGSUB   17        0    1.28933E+02    62.239     0.000    61.105    15.780     8.052    31.029     2.145     6.814    15.546     1.368     2.017     0.247     0.001     0.001     0.332     6.481     0.217     0.006 .00000E+00 0.000E+00 0.000E+00 0.000E+00 0.000E+00 0.000E+00
BIGSUB   18        0    1.66670E+02    62.476     0.000    59.995    15.761     8.119    36.412     0.381     8.076    12.645     0.240     0.331     0.041     0.001     0.000     0.057     4.063     0.143     0.007 .00000E+00 0.000E+00 0.000E+00 0.000E+00 0.000E+00 0.000E+00
BIGSUB   19        0    1.38495E+03   165.672     0.000    56.326    16.512     8.402    65.544    30.884    10.552    69.393    33.052    42.253     5.176     0.012     0.008     7.220    27.794     0.470     0.008 .00000E+00 0.000E+00 0.000E+00 0.000E+00 0.000E+00 0.000E+00
BIGSUB   20        0    1.22012E+03    60.460     0.000    57.940    15.393     8.405    32.458     0.356     7.269    14.341     0.236     0.332     0.041     0.000     0.000     0.056     6.603     0.223     0.006 .00000E+00 0.000E+00 0.000E+00 0.000E+00 0.000E+00 0.000E+00
BIGSUB   21        0    1.21601E+03    58.937     0.000    63.429    17.095     6.642    20.365     0.931     3.657    16.616     1.038     1.338     0.164     0.001     0.000     0.229    11.972     0.510     0.003 .00000E+00 0.000E+00 0.000E+00 0.000E+00 0.000E+00 0.000E+00
BIGSUB   22        0    1.83955E+02    58.183     0.000    66.431    17.136     6.193    21.471     1.941     3.782    16.163     1.928     2.716     0.333     0.002     0.001     0.467    10.381     0.424     0.003 .00000E+00 0.000E+00 0.000E+00 0.000E+00 0.000E+00 0.000E+00
BIGSUB   23        0    1.17469E+03    58.937     0.000    52.379    16.184     7.556    24.095     1.224     4.220    14.779     0.658     0.991     0.121     0.001     0.000     0.168     9.270     0.409     0.004 .00000E+00 0.000E+00 0.000E+00 0.000E+00 0.000E+00 0.000E+00
BIGSUB   24        0    1.88807E+02    57.345     0.000    61.818    16.787     6.490    30.762     0.000     5.525    10.988     0.000     0.000     0.000     0.000     0.000     0.000     5.378     0.210     0.005 .00000E+00 0.000E+00 0.000E+00 0.000E+00 0.000E+00 0.000E+00
BIGSUB   25        0    1.20504E+03    88.102     0.000    53.458    15.601    10.122    36.282     6.129     8.109    31.958     9.387    12.583     1.541     0.008     0.002     1.989    17.595     0.500     0.008 .00000E+00 0.000E+00 0.000E+00 0.000E+00 0.000E+00 0.000E+00
BIGSUB   26        0    1.50071E+03    86.566     0.000    45.275    13.265     8.045    25.226     9.125     5.471    40.432     9.622    17.334     2.123     0.015     0.003     2.981    25.750     0.629     0.003 .00000E+00 0.000E+00 0.000E+00 0.000E+00 0.000E+00 0.000E+00
BIGSUB   27        0    1.24777E+03    66.283     0.000    60.482    15.684     8.296    35.251     0.502     7.149    17.321     0.736     0.858     0.105     0.001     0.000     0.146     9.560     0.271     0.006 .00000E+00 0.000E+00 0.000E+00 0.000E+00 0.000E+00 0.000E+00
BIGSUB    1        0    2.46640E+03     0.000     0.000    76.231     8.079     0.647     0.000     0.000    12.840    19.082     0.000     0.000     0.000     0.000     0.000     0.000     5.957     0.032     0.006 .00000E+00 0.000E+00 0.000E+00 0.000E+00 0.000E+00 0.000E+00
BIGSUB    2        0    2.46416E+03     0.000     0.000    76.088     7.807     0.517     0.000     0.022    18.859    38.233     0.000     0.023     0.003     0.000     0.000     0.004    18.960     0.037     0.008 .00000E+00 0.000E+00 0.000E+00 0.000E+00 0.000E+00 0.000E+00
BIGSUB    3        0    2.23322E+03     0.000     0.000    79.528     8.150     0.579     0.000     0.000    12.709    19.329     0.000     0.000     0.000     0.000     0.000     0.000     6.337     0.031     0.006 .00000E+00 0.000E+00 0.000E+00 0.000E+00 0.000E+00 0.000E+00
BIGSUB    4        0    2.15154E+03     0.000     0.000    76.471     8.193     0.690     0.000     0.000    12.904    19.168     0.000     0.000     0.000     0.000     0.000     0.000     5.977     0.032     0.006 .00000E+00 0.000E+00 0.000E+00 0.000E+00 0.000E+00 0.000E+00
BIGSUB    5        0    2.37967E+03     0.000     0.000    70.005     7.771     0.745     0.000     0.000     8.428    17.582     0.000     0.000     0.000     0.000     0.000     0.000     8.963     0.045     0.003 .00000E+00 0.000E+00 0.000E+00 0.000E+00 0.000E+00 0.000E+00
BIGSUB    6        0    2.15500E+03     0.000     0.000    79.302     7.803     0.431     0.000     0.000     9.019    17.867     0.000     0.000     0.000     0.000     0.000     0.000     8.647     0.038     0.003 .00000E+00 0.000E+00 0.000E+00 0.000E+00 0.000E+00 0.000E+00
BIGSUB    7        0    2.15506E+03     0.000     0.000    97.131     8.537     0.311     0.000     0.000    11.542    18.672     0.000     0.000     0.000     0.000     0.000     0.000     6.870     0.035     0.005 .00000E+00 0.000E+00 0.000E+00 0.000E+00 0.000E+00 0.000E+00
BIGSUB    8        0    2.35579E+03     0.000     0.000    72.248     8.830     1.351     0.000     0.008    16.692    38.323     0.000     0.005     0.001     0.000     0.000     0.001    21.277     0.048     0.008 .00000E+00 0.000E+00 0.000E+00 0.000E+00 0.000E+00 0.000E+00
BIGSUB    9        0    2.33888E+03     0.000     0.000    72.548     8.470     1.089     0.000     0.004    16.017    38.154     0.000     0.003     0.000     0.000     0.000     0.000    21.801     0.047     0.007 .00000E+00 0.000E+00 0.000E+00 0.000E+00 0.000E+00 0.000E+00
BIGSUB   10        0    2.32002E+03     0.000     0.000    69.897     8.316     1.064     0.000     0.000     9.839    17.586     0.000     0.000     0.000     0.000     0.000     0.000     7.525     0.039     0.004 .00000E+00 0.000E+00 0.000E+00 0.000E+00 0.000E+00 0.000E+00
BIGSUB   11        0    2.19677E+03     0.000     0.000    67.418     7.403     0.671     0.000     0.000     9.433    18.359     0.000     0.000     0.000     0.000     0.000     0.000     8.711     0.039     0.003 .00000E+00 0.000E+00 0.000E+00 0.000E+00 0.000E+00 0.000E+00
BIGSUB   12        0    2.15959E+03     0.000     0.000    70.793     7.549     0.551     0.000     0.000     9.231    18.167     0.000     0.000     0.000     0.000     0.000     0.000     8.727     0.039     0.003 .00000E+00 0.000E+00 0.000E+00 0.000E+00 0.000E+00 0.000E+00
BIGSUB   13        0    2.23285E+03     0.000     0.000    67.929     7.602     0.748     0.000     0.000     8.911    18.293     0.000     0.000     0.000     0.000     0.000     0.000     9.178     0.043     0.003 .00000E+00 0.000E+00 0.000E+00 0.000E+00 0.000E+00 0.000E+00
BIGSUB   14        0    2.81057E+02     3.342     0.000    97.006     8.686     0.163     1.846     0.000     9.238    14.101     0.000     0.000     0.000     0.000     0.000     0.000     4.657     0.027     0.004 .00000E+00 0.000E+00 0.000E+00 0.000E+00 0.000E+00 0.000E+00
BIGSUB   15        0    2.18740E+03     0.000     0.000    95.092     8.129     0.175     0.000     0.000    12.025    18.417     0.000     0.000     0.000     0.000     0.000     0.000     6.124     0.029     0.005 .00000E+00 0.000E+00 0.000E+00 0.000E+00 0.000E+00 0.000E+00
BIGSUB   16        0    2.23106E+02     3.302     0.000   102.840     8.767     0.083     2.413     0.000    12.507    14.469     0.000     0.000     0.000     0.000     0.000     0.000     1.683     0.015     0.006 .00000E+00 0.000E+00 0.000E+00 0.000E+00 0.000E+00 0.000E+00
BIGSUB   17        0    2.28933E+02     3.318     0.000   103.538     8.673     0.023     2.134     0.000    10.520    13.747     0.000     0.000     0.000     0.000     0.000     0.000     2.993     0.019     0.005 .00000E+00 0.000E+00 0.000E+00 0.000E+00 0.000E+00 0.000E+00
BIGSUB   18        0    2.66670E+02     3.331     0.000   104.389     8.701     0.045     2.401     0.000    12.311    14.430     0.000     0.000     0.000     0.000     0.000     0.000     1.845     0.012     0.006 .00000E+00 0.000E+00 0.000E+00 0.000E+00 0.000E+00 0.000E+00
BIGSUB   19        0    2.38495E+03     0.000     0.000    94.783     8.267     0.238     0.000     0.080    20.840    38.906     0.000     0.079     0.010     0.000     0.000     0.014    17.551     0.035     0.009 .00000E+00 0.000E+00 0.000E+00 0.000E+00 0.000E+00 0.000E+00
BIGSUB   20        0    2.22012E+03     3.223     0.000   100.790     8.650     0.117     2.162     0.000    10.978    14.229     0.000     0.000     0.000     0.000     0.000     0.000     3.005     0.021     0.005 .00000E+00 0.000E+00 0.000E+00 0.000E+00 0.000E+00 0.000E+00
BIGSUB   21        0    2.21601E+03     0.000     0.000   102.219     6.626     0.098     0.000     0.000     6.563    12.234     0.000     0.000     0.000     0.000     0.000     0.000     5.530     0.040     0.003 .00000E+00 0.000E+00 0.000E+00 0.000E+00 0.000E+00 0.000E+00
BIGSUB   22        0    2.83955E+02     0.000     0.000   105.060     6.179     0.012     0.000     0.000     6.884    12.056     0.000     0.000     0.000     0.000     0.000     0.000     5.025     0.033     0.003 .00000E+00 0.000E+00 0.000E+00 0.000E+00 0.000E+00 0.000E+00
BIGSUB   23        0    2.17469E+03     0.000     0.000    82.376     7.026     0.618     0.000     0.000     7.782    12.434     0.000     0.000     0.000     0.000     0.000     0.000     4.487     0.036     0.004 .00000E+00 0.000E+00 0.000E+00 0.000E+00 0.000E+00 0.000E+00
BIGSUB   24        0    2.88807E+02     0.000     0.000    99.582     6.334     0.061     0.000     0.000     9.929    12.740     0.000     0.000     0.000     0.000     0.000     0.000     2.599     0.019     0.005 .00000E+00 0.000E+00 0.000E+00 0.000E+00 0.000E+00 0.000E+00
BIGSUB   25        0    2.20504E+03     0.000     0.000    82.389     9.131     1.105     0.000     0.000    11.563    18.121     0.000     0.000     0.000     0.000     0.000     0.000     6.295     0.039     0.006 .00000E+00 0.000E+00 0.000E+00 0.000E+00 0.000E+00 0.000E+00
BIGSUB   26        0    2.50071E+03     0.000     0.000    69.825     7.452     0.556     0.000     0.000     8.043    17.449     0.000     0.000     0.000     0.000     0.000     0.000     9.225     0.044     0.003 .00000E+00 0.000E+00 0.000E+00 0.000E+00 0.000E+00 0.000E+00
BIGSUB   27        0    2.24777E+03     0.000     0.000    95.274     7.747     0.092     0.000     0.000    11.342    15.526     0.000     0.000     0.000     0.000     0.000     0.000     3.933     0.022     0.005 .00000E+00 0.000E+00 0.000E+00 0.000E+00 0.000E+00 0.000E+00
BIGSUB    1        0    3.46640E+03    33.126     0.000   109.945    10.243     8.625     7.900     0.000    11.086    16.413     0.000     0.000     0.000     0.000     0.000     0.000     4.951     0.207     0.002 .00000E+00 0.000E+00 0.000E+00 0.000E+00 0.000E+00 0.000E+00
BIGSUB    2        0    3.46416E+03    60.640     0.000   105.330    12.437     8.215    19.133     0.056    18.194    32.726     0.047     0.029     0.004     0.000     0.000     0.005    13.914     0.781     0.004 .00000E+00 0.000E+00 0.000E+00 0.000E+00 0.000E+00 0.000E+00
BIGSUB    3        0    3.23322E+03    33.210     0.000   115.590    10.514     8.602     7.241     0.000    10.859    16.444     0.000     0.000     0.000     0.000     0.000     0.000     5.215     0.237     0.002 .00000E+00 0.000E+00 0.000E+00 0.000E+00 0.000E+00 0.000E+00
BIGSUB    4        0    3.15154E+03    33.215     0.000   110.273    10.370     8.756     7.733     0.000    11.103    16.420     0.000     0.000     0.000     0.000     0.000     0.000     4.940     0.290     0.002 .00000E+00 0.000E+00 0.000E+00 0.000E+00 0.000E+00 0.000E+00
BIGSUB    5        0    3.37967E+03    36.785     0.000    92.049    11.149     8.308     5.505     0.000     7.195    16.523     0.000     0.000     0.000     0.000     0.000     0.000     9.080     0.007     0.001 .00000E+00 0.000E+00 0.000E+00 0.000E+00 0.000E+00 0.000E+00
BIGSUB    6        0    3.15500E+03    33.050     0.000   115.193     9.982     8.141     4.828     0.000     7.164    14.869     0.000     0.000     0.000     0.000     0.000     0.000     7.442     0.309     0.001 .00000E+00 0.000E+00 0.000E+00 0.000E+00 0.000E+00 0.000E+00
BIGSUB    7        0    3.15506E+03    32.739     0.000   138.792    10.821     8.751     5.774     0.000     8.638    14.642     0.000     0.000     0.000     0.000     0.000     0.000     5.669     0.284     0.002 .00000E+00 0.000E+00 0.000E+00 0.000E+00 0.000E+00 0.000E+00
BIGSUB    8        0    3.35579E+03    60.453     0.000    98.561    13.362    10.115    15.724     0.078    16.003    31.466     0.076     0.041     0.005     0.000     0.000     0.007    14.888     0.009     0.003 .00000E+00 0.000E+00 0.000E+00 0.000E+00 0.000E+00 0.000E+00
BIGSUB    9        0    3.33888E+03    60.719     0.000    98.986    13.008     9.460    15.556     0.057    15.411    31.459     0.057     0.030     0.004     0.000     0.000     0.005    15.514     0.009     0.003 .00000E+00 0.000E+00 0.000E+00 0.000E+00 0.000E+00 0.000E+00
BIGSUB   10        0    3.32002E+03    36.395     0.000    89.901    11.658     9.179     6.454     0.000     8.512    16.367     0.000     0.000     0.000     0.000     0.000     0.000     7.566     0.007     0.002 .00000E+00 0.000E+00 0.000E+00 0.000E+00 0.000E+00 0.000E+00
BIGSUB   11        0    3.19677E+03    35.191     0.000    86.904    10.608     8.391     5.859     0.000     8.031    17.079     0.000     0.000     0.000     0.000     0.000     0.000     8.770     0.007     0.001 .00000E+00 0.000E+00 0.000E+00 0.000E+00 0.000E+00 0.000E+00
BIGSUB   12        0    3.15959E+03    37.165     0.000    93.047    10.948     8.006     6.216     0.000     7.922    17.048     0.000     0.000     0.000     0.000     0.000     0.000     8.854     0.006     0.001 .00000E+00 0.000E+00 0.000E+00 0.000E+00 0.000E+00 0.000E+00
BIGSUB   13        0    3.23285E+03    35.430     0.000    87.522    10.838     8.623     5.011     0.000     7.475    16.925     0.000     0.000     0.000     0.000     0.000     0.000     9.189     0.008     0.001 .00000E+00 0.000E+00 0.000E+00 0.000E+00 0.000E+00 0.000E+00
BIGSUB   14        0    3.81057E+02    24.810     0.000   140.880    10.109     7.007     3.376     0.000     5.611     9.105     0.000     0.000     0.000     0.000     0.000     0.000     3.228     0.184     0.001 .00000E+00 0.000E+00 0.000E+00 0.000E+00 0.000E+00 0.000E+00
BIGSUB   15        0    3.18740E+03    33.215     0.000   134.705    10.123     8.180     7.529     0.000     9.675    15.287     0.000     0.000     0.000     0.000     0.000     0.000     5.259     0.225     0.002 .00000E+00 0.000E+00 0.000E+00 0.000E+00 0.000E+00 0.000E+00
BIGSUB   16        0    3.23106E+02    24.518     0.000   152.549    10.140     7.683     5.334     0.000     9.695    11.212     0.000     0.000     0.000     0.000     0.000     0.000     1.154     0.061     0.002 .00000E+00 0.000E+00 0.000E+00 0.000E+00 0.000E+00 0.000E+00
BIGSUB   17        0    3.28933E+02    24.634     0.000   153.548     9.931     7.381     4.520     0.000     7.372     9.780     0.000     0.000     0.000     0.000     0.000     0.000     2.102     0.119     0.002 .00000E+00 0.000E+00 0.000E+00 0.000E+00 0.000E+00 0.000E+00
BIGSUB   18        0    3.66670E+02    24.728     0.000   153.102     9.988     7.582     5.404     0.000     9.465    11.095     0.000     0.000     0.000     0.000     0.000     0.000     1.273     0.117     0.002 .00000E+00 0.000E+00 0.000E+00 0.000E+00 0.000E+00 0.000E+00
BIGSUB   19        0    3.38495E+03    60.760     0.000   128.968    13.117     8.367    20.785     0.078    20.043    32.916     0.052     0.042     0.005     0.001     0.000     0.007    12.174     1.095     0.005 .00000E+00 0.000E+00 0.000E+00 0.000E+00 0.000E+00 0.000E+00
BIGSUB   20        0    3.22012E+03    23.930     0.000   147.851    10.043     7.401     4.261     0.000     7.588     9.972     0.000     0.000     0.000     0.000     0.000     0.000     2.067     0.081     0.002 .00000E+00 0.000E+00 0.000E+00 0.000E+00 0.000E+00 0.000E+00
BIGSUB   21        0    3.21601E+03    34.532     0.000   142.785    12.514     7.070     6.241     0.000     4.064    10.853     0.000     0.000     0.000     0.000     0.000     0.000     6.589     0.365     0.001 .00000E+00 0.000E+00 0.000E+00 0.000E+00 0.000E+00 0.000E+00
BIGSUB   22        0    3.83955E+02    34.090     0.000   146.626    12.029     7.131     7.085     0.000     4.693    10.977     0.000     0.000     0.000     0.000     0.000     0.000     6.071     0.332     0.001 .00000E+00 0.000E+00 0.000E+00 0.000E+00 0.000E+00 0.000E+00
BIGSUB   23        0    3.17469E+03    34.532     0.000   117.177    12.900     7.652     7.568     0.000     6.702    12.183     0.000     0.000     0.000     0.000     0.000     0.000     5.244     0.265     0.001 .00000E+00 0.000E+00 0.000E+00 0.000E+00 0.000E+00 0.000E+00
BIGSUB   24        0    3.88807E+02    33.599     0.000   139.054    12.067     7.746    10.268     0.000     9.100    12.416     0.000     0.000     0.000     0.000     0.000     0.000     3.011     0.005     0.002 .00000E+00 0.000E+00 0.000E+00 0.000E+00 0.000E+00 0.000E+00
BIGSUB   25        0    3.20504E+03    37.165     0.000   113.740    13.426     9.165     6.990     0.000     9.318    15.848     0.000     0.000     0.000     0.000     0.000     0.000     6.191     0.339     0.002 .00000E+00 0.000E+00 0.000E+00 0.000E+00 0.000E+00 0.000E+00
BIGSUB   26        0    3.50071E+03    36.517     0.000    91.532    10.760     8.045     5.361     0.000     6.875    16.560     0.000     0.000     0.000     0.000     0.000     0.000     9.448     0.007     0.001 .00000E+00 0.000E+00 0.000E+00 0.000E+00 0.000E+00 0.000E+00
BIGSUB   27        0    3.24777E+03    44.661     0.000   140.080     9.890     8.269    19.676     0.002    11.889    18.637     0.000     0.001     0.000     0.000     0.000     0.000     6.382     0.172     0.002 .00000E+00 0.000E+00 0.000E+00 0.000E+00 0.000E+00 0.000E+00
BIGSUB    1        0    4.46640E+03    88.371     0.000    83.259    29.157     7.792    37.407     1.221    14.760    34.634     0.537     1.009     0.124     0.193     0.000     0.172    18.180     6.512     0.108 .00000E+00 0.000E+00 0.000E+00 0.000E+00 0.000E+00 0.000E+00
BIGSUB    2        0    4.46416E+03   276.415     0.000    76.372    31.049     7.924   105.608    47.780    30.342   146.854    47.291    35.826     4.388     3.218     0.005     6.218    67.907     9.493     0.222 .00000E+00 0.000E+00 0.000E+00 0.000E+00 0.000E+00 0.000E+00
BIGSUB    3        0    4.23322E+03    88.593     0.000    86.751    30.290     7.506    36.157     0.023    12.776    33.166     0.001     0.003     0.000     0.003     0.000     0.000    19.904     7.504     0.088 .00000E+00 0.000E+00 0.000E+00 0.000E+00 0.000E+00 0.000E+00
BIGSUB    4        0    4.15154E+03    88.608     0.000    83.507    29.419     7.884    37.484     0.856    14.919    34.624     0.312     0.622     0.076     0.149     0.000     0.106    18.374     9.224     0.171 .00000E+00 0.000E+00 0.000E+00 0.000E+00 0.000E+00 0.000E+00
BIGSUB    5        0    4.37967E+03   115.768     0.000    77.185    26.466     5.064    36.170     8.908     9.418    57.780     8.911    12.209     1.495     0.000     0.002     2.114    39.116     0.801     0.002 .00000E+00 0.000E+00 0.000E+00 0.000E+00 0.000E+00 0.000E+00
BIGSUB    6        0    4.15500E+03    88.168     0.000    86.315    28.900     7.006    26.323     2.398     8.293    39.012     1.458     2.486     0.305     0.166     0.000     0.422    27.991     8.975     0.052 .00000E+00 0.000E+00 0.000E+00 0.000E+00 0.000E+00 0.000E+00
BIGSUB    7        0    4.15506E+03    87.337     0.000   104.966    32.519     7.119    32.127     0.007    10.946    32.995     0.000     0.001     0.000     0.000     0.000     0.000    21.629     9.129     0.122 .00000E+00 0.000E+00 0.000E+00 0.000E+00 0.000E+00 0.000E+00
BIGSUB    8        0    4.35579E+03   275.566     0.000    73.216    30.961     9.880    94.257    49.173    26.632   152.515    70.605    40.010     4.901     1.277     0.006     6.927    75.985     7.236     0.084 .00000E+00 0.000E+00 0.000E+00 0.000E+00 0.000E+00 0.000E+00
BIGSUB    9        0    4.33888E+03   276.776     0.000    73.556    30.542     9.284    90.759    50.210    25.714   154.832    77.825    43.090     5.278     0.952     0.006     7.590    78.209     4.756     0.050 .00000E+00 0.000E+00 0.000E+00 0.000E+00 0.000E+00 0.000E+00
BIGSUB   10        0    4.32002E+03   114.542     0.000    76.655    27.725     6.003    41.983     9.083    12.736    54.999     5.692    10.280     1.259     0.000     0.002     1.621    32.787     0.702     0.002 .00000E+00 0.000E+00 0.000E+00 0.000E+00 0.000E+00 0.000E+00
BIGSUB   11        0    4.19677E+03   110.750     0.000    74.270    25.574     5.106    40.055     4.343    12.286    56.634     3.655     5.046     0.618     0.000     0.001     0.872    39.631     0.006     0.001 .00000E+00 0.000E+00 0.000E+00 0.000E+00 0.000E+00 0.000E+00
BIGSUB   12        0    4.15959E+03   116.963     0.000    77.980    26.444     4.528    39.319     6.500    11.711    57.656     4.437     6.846     0.839     0.000     0.001     1.185    39.076     1.293     0.003 .00000E+00 0.000E+00 0.000E+00 0.000E+00 0.000E+00 0.000E+00
BIGSUB   13        0    4.23285E+03   111.504     0.000    74.759    25.937     5.266    37.608     3.752     9.441    55.584     3.064     4.295     0.526     0.000     0.001     0.742    42.042     0.986     0.002 .00000E+00 0.000E+00 0.000E+00 0.000E+00 0.000E+00 0.000E+00
BIGSUB   14        0    4.81057E+02    66.026     0.000   106.503    29.995     5.443    22.935     0.374     7.467    20.524     0.204     0.420     0.051     0.190     0.000     0.070    12.368     6.306     0.042 .00000E+00 0.000E+00 0.000E+00 0.000E+00 0.000E+00 0.000E+00
BIGSUB   15        0    4.18740E+03    88.608     0.000   102.503    30.742     7.086    34.740     1.678    12.364    33.827     1.308     2.228     0.273     0.166     0.000     0.377    19.341     7.250     0.094 .00000E+00 0.000E+00 0.000E+00 0.000E+00 0.000E+00 0.000E+00
BIGSUB   16        0    4.23106E+02    65.248     0.000   113.856    31.535     5.578    31.072     0.000     9.713    14.050     0.000     0.000     0.000     0.000     0.000     0.000     3.904     1.075     0.013 .00000E+00 0.000E+00 0.000E+00 0.000E+00 0.000E+00 0.000E+00
BIGSUB   17        0    4.28933E+02    65.557     0.000   114.442    31.045     5.203    27.181     0.460     8.236    16.739     0.332     0.532     0.065     0.000     0.000     0.087     7.676     2.346     0.071 .00000E+00 0.000E+00 0.000E+00 0.000E+00 0.000E+00 0.000E+00
BIGSUB   18        0    4.66670E+02    65.807     0.000   114.005    31.871     5.065    30.650     0.161     9.980    15.239     0.042     0.106     0.013     0.000     0.000     0.017     4.671     2.027     0.017 .00000E+00 0.000E+00 0.000E+00 0.000E+00 0.000E+00 0.000E+00
BIGSUB   19        0    4.38495E+03   276.963     0.000    93.586    34.336     7.992   117.142    40.176    33.508   137.007    30.129    25.977     3.182     3.582     0.004     4.423    62.413    13.720     0.375 .00000E+00 0.000E+00 0.000E+00 0.000E+00 0.000E+00 0.000E+00
BIGSUB   20        0    4.22012E+03    63.683     0.000   110.272    30.729     5.423    26.873     0.128     8.371    16.434     0.028     0.071     0.009     0.000     0.000     0.012     7.561     1.384     0.010 .00000E+00 0.000E+00 0.000E+00 0.000E+00 0.000E+00 0.000E+00
BIGSUB   21        0    4.21601E+03    96.203     0.000   110.853    37.373     2.748    32.912     0.374     7.815    30.619     0.245     0.450     0.055     0.000     0.000     0.076    22.155     8.356     0.025 .00000E+00 0.000E+00 0.000E+00 0.000E+00 0.000E+00 0.000E+00
BIGSUB   22        0    4.83955E+02    94.972     0.000   113.635    38.211     2.181    34.800     0.760     8.206    29.078     0.175     0.435     0.053     0.000     0.000     0.072    19.819     6.175     0.015 .00000E+00 0.000E+00 0.000E+00 0.000E+00 0.000E+00 0.000E+00
BIGSUB   23        0    4.17469E+03    96.203     0.000    90.166    34.377     4.157    40.455     0.461    10.624    29.123     0.133     0.308     0.038     0.026     0.000     0.052    17.707     6.352     0.063 .00000E+00 0.000E+00 0.000E+00 0.000E+00 0.000E+00 0.000E+00
BIGSUB   24        0    4.88807E+02    93.605     0.000   107.880    35.417     3.351    49.910     0.000    13.641    23.956     0.000     0.000     0.000     0.000     0.000     0.000     9.891     0.002     0.001 .00000E+00 0.000E+00 0.000E+00 0.000E+00 0.000E+00 0.000E+00
BIGSUB   25        0    4.20504E+03   116.963     0.000    90.211    32.982     5.253    47.530     6.864    13.971    47.726     3.477     6.324     0.775     1.609     0.001     0.999    26.437     7.796     0.065 .00000E+00 0.000E+00 0.000E+00 0.000E+00 0.000E+00 0.000E+00
BIGSUB   26        0    4.50071E+03   114.924     0.000    76.456    25.928     4.549    34.478    10.490     8.970    59.465     7.569    13.415     1.643     0.000     0.002     2.323    39.683     1.487     0.002 .00000E+00 0.000E+00 0.000E+00 0.000E+00 0.000E+00 0.000E+00
BIGSUB   27        0    4.24777E+03   106.506     0.000   103.206    29.896     7.783    57.942     1.370    19.947    40.152     1.212     1.680     0.206     0.331     0.000     0.283    18.276     2.915     0.067 .00000E+00 0.000E+00 0.000E+00 0.000E+00 0.000E+00 0.000E+00
BIGSUB    1        0    5.46640E+03    21.209     0.000   139.083    18.773     0.000     5.835     0.002    18.514    27.613     0.000     0.000     0.000     0.000     0.000     0.000     8.451     1.944     0.113 .00000E+00 0.000E+00 0.000E+00 0.000E+00 0.000E+00 0.000E+00
BIGSUB    2        0    5.46416E+03    41.841     0.000   134.344    21.644     0.000    13.737     0.003    50.009    92.465     0.000     0.001     0.000     0.000     0.000     0.000    41.046     1.170     0.253 .00000E+00 0.000E+00 0.000E+00 0.000E+00 0.000E+00 0.000E+00
BIGSUB    3        0    5.23322E+03    21.262     0.000   144.641    18.761     0.000     5.379     0.000    17.472    26.863     0.000     0.000     0.000     0.000     0.000     0.000     8.764     1.638     0.091 .00000E+00 0.000E+00 0.000E+00 0.000E+00 0.000E+00 0.000E+00
BIGSUB    4        0    5.15154E+03    21.266     0.000   139.502    19.077     0.000     5.692     0.001    18.527    27.573     0.000     0.000     0.000     0.000     0.000     0.000     8.398     2.763     0.176 .00000E+00 0.000E+00 0.000E+00 0.000E+00 0.000E+00 0.000E+00
BIGSUB    5        0    5.37967E+03    16.939     0.000   132.214    17.352     0.068     0.396     0.000    15.179    31.022     0.000     0.000     0.000     0.000     0.000     0.000    15.340     3.199     0.027 .00000E+00 0.000E+00 0.000E+00 0.000E+00 0.000E+00 0.000E+00
BIGSUB    6        0    5.15500E+03    21.160     0.000   143.817    17.543     0.000     3.918     0.000    12.414    25.269     0.000     0.000     0.000     0.000     0.000     0.000    12.406     2.223     0.061 .00000E+00 0.000E+00 0.000E+00 0.000E+00 0.000E+00 0.000E+00
BIGSUB    7        0    5.15506E+03    20.961     0.000   175.245    18.512     0.000     4.570     0.000    15.325    25.379     0.000     0.000     0.000     0.000     0.000     0.000     9.498     2.341     0.127 .00000E+00 0.000E+00 0.000E+00 0.000E+00 0.000E+00 0.000E+00
BIGSUB    8        0    5.35579E+03    41.713     0.000   129.159    24.192     0.114    11.845     0.001    44.149    89.870     0.000     0.000     0.000     0.000     0.000     0.000    44.479     6.570     0.319 .00000E+00 0.000E+00 0.000E+00 0.000E+00 0.000E+00 0.000E+00
BIGSUB    9        0    5.33888E+03    41.896     0.000   129.774    22.924     0.134    11.870     0.001    42.716    90.106     0.000     0.000     0.000     0.000     0.000     0.000    46.192     4.304     0.192 .00000E+00 0.000E+00 0.000E+00 0.000E+00 0.000E+00 0.000E+00
BIGSUB   10        0    5.32002E+03    16.760     0.000   128.078    18.703     0.055     0.541     0.000    18.146    31.507     0.000     0.000     0.000     0.000     0.000     0.000    12.776     2.759     0.038 .00000E+00 0.000E+00 0.000E+00 0.000E+00 0.000E+00 0.000E+00
BIGSUB   11        0    5.19677E+03    16.205     0.000   124.291    16.833     0.006     0.369     0.000    17.271    32.859     0.000     0.000     0.000     0.000     0.000     0.000    15.031     0.001     0.000 .00000E+00 0.000E+00 0.000E+00 0.000E+00 0.000E+00 0.000E+00
BIGSUB   12        0    5.15959E+03    17.114     0.000   133.548    16.972     0.000     0.592     0.000    17.004    32.554     0.000     0.000     0.000     0.000     0.000     0.000    14.999     5.224     0.061 .00000E+00 0.000E+00 0.000E+00 0.000E+00 0.000E+00 0.000E+00
BIGSUB   13        0    5.23285E+03    16.315     0.000   125.073    16.940     0.007     0.357     0.000    15.555    31.884     0.000     0.000     0.000     0.000     0.000     0.000    15.810     3.900     0.034 .00000E+00 0.000E+00 0.000E+00 0.000E+00 0.000E+00 0.000E+00
BIGSUB   14        0    5.81057E+02    15.696     0.000   182.380    16.018     0.000     2.434     0.000     9.416    14.942     0.000     0.000     0.000     0.000     0.000     0.000     5.117     1.753     0.046 .00000E+00 0.000E+00 0.000E+00 0.000E+00 0.000E+00 0.000E+00
BIGSUB   15        0    5.18740E+03    21.266     0.000   171.424    17.983     0.000     5.638     0.000    17.099    26.497     0.000     0.000     0.000     0.000     0.000     0.000     8.793     2.309     0.105 .00000E+00 0.000E+00 0.000E+00 0.000E+00 0.000E+00 0.000E+00
BIGSUB   16        0    5.23106E+02    15.511     0.000   198.145    16.337     0.000     3.856     0.000    14.131    16.596     0.000     0.000     0.000     0.000     0.000     0.000     1.903     0.364     0.015 .00000E+00 0.000E+00 0.000E+00 0.000E+00 0.000E+00 0.000E+00
BIGSUB   17        0    5.28933E+02    15.585     0.000   199.121    15.487     0.000     3.573     0.000    11.932    15.812     0.000     0.000     0.000     0.000     0.000     0.000     3.396     1.186     0.119 .00000E+00 0.000E+00 0.000E+00 0.000E+00 0.000E+00 0.000E+00
BIGSUB   18        0    5.66670E+02    15.644     0.000   198.867    15.780     0.000     3.890     0.000    13.997    16.581     0.000     0.000     0.000     0.000     0.000     0.000     2.028     0.707     0.020 .00000E+00 0.000E+00 0.000E+00 0.000E+00 0.000E+00 0.000E+00
BIGSUB   19        0    5.38495E+03    41.924     0.000   165.000    22.298     0.000    15.063     0.015    55.306    93.554     0.000     0.003     0.000     0.000     0.000     0.000    36.677     1.788     0.431 .00000E+00 0.000E+00 0.000E+00 0.000E+00 0.000E+00 0.000E+00
BIGSUB   20        0    5.22012E+03    15.139     0.000   192.405    15.921     0.000     2.968     0.000    11.655    15.447     0.000     0.000     0.000     0.000     0.000     0.000     3.306     0.493     0.012 .00000E+00 0.000E+00 0.000E+00 0.000E+00 0.000E+00 0.000E+00
BIGSUB   21        0    5.21601E+03     9.620     0.000   192.302    10.974     0.000     0.000     0.000    13.971    24.426     0.000     0.000     0.000     0.000     0.000     0.000    10.017     1.416     0.046 .00000E+00 0.000E+00 0.000E+00 0.000E+00 0.000E+00 0.000E+00
BIGSUB   22        0    5.83955E+02     9.497     0.000   195.789    10.372     0.000     0.000     0.000    14.942    24.561     0.000     0.000     0.000     0.000     0.000     0.000     9.154     0.766     0.024 .00000E+00 0.000E+00 0.000E+00 0.000E+00 0.000E+00 0.000E+00
BIGSUB   23        0    5.17469E+03     9.620     0.000   156.646    12.707     0.000     0.000     0.000    17.600    26.345     0.000     0.000     0.000     0.000     0.000     0.000     8.212     1.017     0.084 .00000E+00 0.000E+00 0.000E+00 0.000E+00 0.000E+00 0.000E+00
BIGSUB   24        0    5.88807E+02     9.361     0.000   187.116    12.050     0.000     0.000     0.000    21.966    27.415     0.000     0.000     0.000     0.000     0.000     0.000     4.780     0.001     0.001 .00000E+00 0.000E+00 0.000E+00 0.000E+00 0.000E+00 0.000E+00
BIGSUB   25        0    5.20504E+03    17.114     0.000   157.616    19.509     0.000     0.332     0.000    20.357    31.405     0.000     0.000     0.000     0.000     0.000     0.000    10.380     1.649     0.080 .00000E+00 0.000E+00 0.000E+00 0.000E+00 0.000E+00 0.000E+00
BIGSUB   26        0    5.50071E+03    16.816     0.000   130.714    16.658     0.000     0.367     0.000    14.503    30.763     0.000     0.000     0.000     0.000     0.000     0.000    15.780     5.948     0.046 .00000E+00 0.000E+00 0.000E+00 0.000E+00 0.000E+00 0.000E+00
BIGSUB   27        0    5.24777E+03     9.442     0.000   188.504    14.886     0.000     0.723     0.000    27.545    35.838     0.000     0.000     0.000     0.000     0.000     0.000     7.438     0.652     0.078 .00000E+00 0.000E+00 0.000E+00 0.000E+00 0.000E+00 0.000E+00
BIGSUB    1        0    6.46640E+03     6.969     0.000   175.275     6.074     0.000     0.000     0.000     5.010     7.398     0.000     0.000     0.000     0.000     0.000     0.000     1.786     0.146     0.015 .00000E+00 0.000E+00 0.000E+00 0.000E+00 0.000E+00 0.000E+00
BIGSUB    2        0    6.46416E+03     1.314     0.000   172.654     1.314     0.000     0.000     0.000    33.189    37.725     0.000     0.000     0.000     0.000     0.000     0.000     3.098     0.067     0.070 .00000E+00 0.000E+00 0.000E+00 0.000E+00 0.000E+00 0.000E+00
BIGSUB    3        0    6.23322E+03     6.986     0.000   177.367     6.026     0.000     0.000     0.000     5.605     7.924     0.000     0.000     0.000     0.000     0.000     0.000     1.737     0.118     0.013 .00000E+00 0.000E+00 0.000E+00 0.000E+00 0.000E+00 0.000E+00
BIGSUB    4        0    6.15154E+03     6.987     0.000   175.745     6.099     0.000     0.000     0.000     4.690     7.039     0.000     0.000     0.000     0.000     0.000     0.000     1.747     0.209     0.021 .00000E+00 0.000E+00 0.000E+00 0.000E+00 0.000E+00 0.000E+00
BIGSUB    5        0    6.37967E+03     0.000     0.000   176.402     0.068     0.000     0.000     0.000     4.472     5.967     0.000     0.000     0.000     0.000     0.000     0.000     1.027     0.241     0.006 .00000E+00 0.000E+00 0.000E+00 0.000E+00 0.000E+00 0.000E+00
BIGSUB    6        0    6.15500E+03     6.953     0.000   176.498     5.527     0.000     0.000     0.000     2.170     4.910     0.000     0.000     0.000     0.000     0.000     0.000     2.323     0.132     0.005 .00000E+00 0.000E+00 0.000E+00 0.000E+00 0.000E+00 0.000E+00
BIGSUB    7        0    6.15506E+03     6.887     0.000   202.926     5.852     0.000     0.000     0.000     2.215     4.631     0.000     0.000     0.000     0.000     0.000     0.000     1.903     0.186     0.011 .00000E+00 0.000E+00 0.000E+00 0.000E+00 0.000E+00 0.000E+00
BIGSUB    8        0    6.35579E+03     1.310     0.000   170.387     1.425     0.000     0.000     0.000    29.275    33.641     0.000     0.000     0.000     0.000     0.000     0.000     3.098     0.339     0.104 .00000E+00 0.000E+00 0.000E+00 0.000E+00 0.000E+00 0.000E+00
BIGSUB    9        0    6.33888E+03     1.316     0.000   171.142     1.451     0.000     0.000     0.000    28.425    32.875     0.000     0.000     0.000     0.000     0.000     0.000     3.223     0.222     0.063 .00000E+00 0.000E+00 0.000E+00 0.000E+00 0.000E+00 0.000E+00
BIGSUB   10        0    6.32002E+03     0.000     0.000   177.502     0.055     0.000     0.000     0.000     4.717     6.117     0.000     0.000     0.000     0.000     0.000     0.000     0.856     0.208     0.006 .00000E+00 0.000E+00 0.000E+00 0.000E+00 0.000E+00 0.000E+00
BIGSUB   11        0    6.19677E+03     0.000     0.000   171.633     0.006     0.000     0.000     0.000     3.504     5.020     0.000     0.000     0.000     0.000     0.000     0.000     0.999     0.000     0.000 .00000E+00 0.000E+00 0.000E+00 0.000E+00 0.000E+00 0.000E+00
BIGSUB   12        0    6.15959E+03     0.000     0.000   178.213     0.000     0.000     0.000     0.000     4.121     5.628     0.000     0.000     0.000     0.000     0.000     0.000     0.994     0.393     0.011 .00000E+00 0.000E+00 0.000E+00 0.000E+00 0.000E+00 0.000E+00
BIGSUB   13        0    6.23285E+03     0.000     0.000   172.797     0.007     0.000     0.000     0.000     5.025     6.549     0.000     0.000     0.000     0.000     0.000     0.000     1.042     0.290     0.008 .00000E+00 0.000E+00 0.000E+00 0.000E+00 0.000E+00 0.000E+00
BIGSUB   14        0    6.81057E+02     0.000     0.000   209.253     0.000     0.000     0.000     0.000     0.626     1.486     0.000     0.000     0.000     0.000     0.000     0.000     0.491     0.144     0.002 .00000E+00 0.000E+00 0.000E+00 0.000E+00 0.000E+00 0.000E+00
BIGSUB   15        0    6.18740E+03     6.987     0.000   204.065     5.993     0.000     0.000     0.000     3.863     6.202     0.000     0.000     0.000     0.000     0.000     0.000     1.775     0.162     0.010 .00000E+00 0.000E+00 0.000E+00 0.000E+00 0.000E+00 0.000E+00
BIGSUB   16        0    6.23106E+02     0.000     0.000   227.578     0.000     0.000     0.000     0.000     2.073     2.941     0.000     0.000     0.000     0.000     0.000     0.000     0.358     0.050     0.000 .00000E+00 0.000E+00 0.000E+00 0.000E+00 0.000E+00 0.000E+00
BIGSUB   17        0    6.28933E+02     0.000     0.000   228.822     0.000     0.000     0.000     0.000     1.413     2.301     0.000     0.000     0.000     0.000     0.000     0.000     0.447     0.147     0.014 .00000E+00 0.000E+00 0.000E+00 0.000E+00 0.000E+00 0.000E+00
BIGSUB   18        0    6.66670E+02     0.000     0.000   231.577     0.000     0.000     0.000     0.000     1.803     2.554     0.000     0.000     0.000     0.000     0.000     0.000     0.247     0.064     0.001 .00000E+00 0.000E+00 0.000E+00 0.000E+00 0.000E+00 0.000E+00
BIGSUB   19        0    6.38495E+03     1.316     0.000   200.384     1.317     0.000     0.000     0.000    36.522    41.118     0.000     0.000     0.000     0.000     0.000     0.000     3.007     0.114     0.119 .00000E+00 0.000E+00 0.000E+00 0.000E+00 0.000E+00 0.000E+00
BIGSUB   20        0    6.22012E+03     0.000     0.000   223.867     0.000     0.000     0.000     0.000     1.060     1.941     0.000     0.000     0.000     0.000     0.000     0.000     0.443     0.051     0.000 .00000E+00 0.000E+00 0.000E+00 0.000E+00 0.000E+00 0.000E+00
BIGSUB   21        0    6.21601E+03     0.000     0.000   229.729     0.000     0.000     0.000     0.000     1.786     2.880     0.000     0.000     0.000     0.000     0.000     0.000     0.675     0.072     0.001 .00000E+00 0.000E+00 0.000E+00 0.000E+00 0.000E+00 0.000E+00
BIGSUB   22        0    6.83955E+02     0.000     0.000   229.339     0.000     0.000     0.000     0.000     2.157     3.231     0.000     0.000     0.000     0.000     0.000     0.000     0.627     0.039     0.000 .00000E+00 0.000E+00 0.000E+00 0.000E+00 0.000E+00 0.000E+00
BIGSUB   23        0    6.17469E+03     0.000     0.000   198.013     0.000     0.000     0.000     0.000     4.549     5.731     0.000     0.000     0.000     0.000     0.000     0.000     0.672     0.079     0.010 .00000E+00 0.000E+00 0.000E+00 0.000E+00 0.000E+00 0.000E+00
BIGSUB   24        0    6.88807E+02     0.000     0.000   223.580     0.000     0.000     0.000     0.000     5.433     6.612     0.000     0.000     0.000     0.000     0.000     0.000     0.538     0.000     0.000 .00000E+00 0.000E+00 0.000E+00 0.000E+00 0.000E+00 0.000E+00
BIGSUB   25        0    6.20504E+03     0.000     0.000   198.026     0.000     0.000     0.000     0.000     5.939     7.454     0.000     0.000     0.000     0.000     0.000     0.000     0.898     0.093     0.008 .00000E+00 0.000E+00 0.000E+00 0.000E+00 0.000E+00 0.000E+00
BIGSUB   26        0    6.50071E+03     0.000     0.000   175.038     0.000     0.000     0.000     0.000     3.854     5.358     0.000     0.000     0.000     0.000     0.000     0.000     1.057     0.446     0.008 .00000E+00 0.000E+00 0.000E+00 0.000E+00 0.000E+00 0.000E+00
BIGSUB   27        0    6.24777E+03     0.000     0.000   214.103     0.000     0.000     0.000     0.000     8.001     9.543     0.000     0.000     0.000     0.000     0.000     0.000     0.739     0.048     0.010 .00000E+00 0.000E+00 0.000E+00 0.000E+00 0.000E+00 0.000E+00
BIGSUB    1        0    7.46640E+03     0.000     0.000   212.268     0.000     0.000     0.000     0.000     0.077     0.812     0.000     0.000     0.000     0.000     0.000     0.000     0.221     0.018     0.000 .00000E+00 0.000E+00 0.000E+00 0.000E+00 0.000E+00 0.000E+00
BIGSUB    2        0    7.46416E+03     3.234     0.000   193.107     3.234     0.000     0.000     0.000     7.537     9.049     0.000     0.000     0.000     0.000     0.000     0.000     0.249     0.005     0.006 .00000E+00 0.000E+00 0.000E+00 0.000E+00 0.000E+00 0.000E+00
BIGSUB    3        0    7.23322E+03     0.000     0.000   218.787     0.000     0.000     0.000     0.000     0.076     0.746     0.000     0.000     0.000     0.000     0.000     0.000     0.175     0.013     0.000 .00000E+00 0.000E+00 0.000E+00 0.000E+00 0.000E+00 0.000E+00
BIGSUB    4        0    7.15154E+03     0.000     0.000   212.775     0.000     0.000     0.000     0.000     0.066     0.786     0.000     0.000     0.000     0.000     0.000     0.000     0.207     0.027     0.000 .00000E+00 0.000E+00 0.000E+00 0.000E+00 0.000E+00 0.000E+00
BIGSUB    5        0    7.37967E+03     1.103     0.000   187.958     1.103     0.000     0.000     0.000     0.000     0.457     0.000     0.000     0.000     0.000     0.000     0.000     0.059     0.014     0.000 .00000E+00 0.000E+00 0.000E+00 0.000E+00 0.000E+00 0.000E+00
BIGSUB    6        0    7.15500E+03     0.000     0.000   218.019     0.000     0.000     0.000     0.000     0.000     0.504     0.000     0.000     0.000     0.000     0.000     0.000     0.149     0.008     0.000 .00000E+00 0.000E+00 0.000E+00 0.000E+00 0.000E+00 0.000E+00
BIGSUB    7        0    7.15506E+03     0.000     0.000   249.868     0.000     0.000     0.000     0.000     0.002     0.620     0.000     0.000     0.000     0.000     0.000     0.000     0.182     0.022     0.000 .00000E+00 0.000E+00 0.000E+00 0.000E+00 0.000E+00 0.000E+00
BIGSUB    8        0    7.35579E+03     3.224     0.000   185.325     3.224     0.000     0.000     0.000     5.354     6.646     0.000     0.000     0.000     0.000     0.000     0.000     0.178     0.019     0.006 .00000E+00 0.000E+00 0.000E+00 0.000E+00 0.000E+00 0.000E+00
BIGSUB    9        0    7.33888E+03     3.238     0.000   186.106     3.238     0.000     0.000     0.000     4.778     6.042     0.000     0.000     0.000     0.000     0.000     0.000     0.185     0.013     0.003 .00000E+00 0.000E+00 0.000E+00 0.000E+00 0.000E+00 0.000E+00
BIGSUB   10        0    7.32002E+03     1.091     0.000   183.511     1.091     0.000     0.000     0.000     0.000     0.514     0.000     0.000     0.000     0.000     0.000     0.000     0.049     0.012     0.000 .00000E+00 0.000E+00 0.000E+00 0.000E+00 0.000E+00 0.000E+00
BIGSUB   11        0    7.19677E+03     1.055     0.000   177.211     1.055     0.000     0.000     0.000     0.000     0.497     0.000     0.000     0.000     0.000     0.000     0.000     0.057     0.000     0.000 .00000E+00 0.000E+00 0.000E+00 0.000E+00 0.000E+00 0.000E+00
BIGSUB   12        0    7.15959E+03     1.114     0.000   189.919     1.114     0.000     0.000     0.000     0.000     0.493     0.000     0.000     0.000     0.000     0.000     0.000     0.057     0.022     0.000 .00000E+00 0.000E+00 0.000E+00 0.000E+00 0.000E+00 0.000E+00
BIGSUB   13        0    7.23285E+03     1.062     0.000   178.450     1.062     0.000     0.000     0.000     0.000     0.469     0.000     0.000     0.000     0.000     0.000     0.000     0.059     0.017     0.000 .00000E+00 0.000E+00 0.000E+00 0.000E+00 0.000E+00 0.000E+00
BIGSUB   14        0    7.81057E+02     0.000     0.000   253.562     0.000     0.000     0.000     0.000     0.000     0.364     0.000     0.000     0.000     0.000     0.000     0.000     0.054     0.018     0.000 .00000E+00 0.000E+00 0.000E+00 0.000E+00 0.000E+00 0.000E+00
BIGSUB   15        0    7.18740E+03     0.000     0.000   247.293     0.000     0.000     0.000     0.000     0.041     0.699     0.000     0.000     0.000     0.000     0.000     0.000     0.176     0.019     0.000 .00000E+00 0.000E+00 0.000E+00 0.000E+00 0.000E+00 0.000E+00
BIGSUB   16        0    7.23106E+02     0.000     0.000   271.006     0.000     0.000     0.000     0.000     0.000     0.525     0.000     0.000     0.000     0.000     0.000     0.000     0.095     0.010     0.000 .00000E+00 0.000E+00 0.000E+00 0.000E+00 0.000E+00 0.000E+00
BIGSUB   17        0    7.28933E+02     0.000     0.000   272.753     0.000     0.000     0.000     0.000     0.000     0.473     0.000     0.000     0.000     0.000     0.000     0.000     0.099     0.037     0.000 .00000E+00 0.000E+00 0.000E+00 0.000E+00 0.000E+00 0.000E+00
BIGSUB   18        0    7.66670E+02     0.000     0.000   272.013     0.000     0.000     0.000     0.000     0.000     0.470     0.000     0.000     0.000     0.000     0.000     0.000     0.044     0.007     0.000 .00000E+00 0.000E+00 0.000E+00 0.000E+00 0.000E+00 0.000E+00
BIGSUB   19        0    7.38495E+03     3.241     0.000   224.697     3.241     0.000     0.000     0.000     7.019     8.710     0.000     0.000     0.000     0.000     0.000     0.000     0.295     0.012     0.008 .00000E+00 0.000E+00 0.000E+00 0.000E+00 0.000E+00 0.000E+00
BIGSUB   20        0    7.22012E+03     0.000     0.000   262.642     0.000     0.000     0.000     0.000     0.000     0.460     0.000     0.000     0.000     0.000     0.000     0.000     0.091     0.007     0.000 .00000E+00 0.000E+00 0.000E+00 0.000E+00 0.000E+00 0.000E+00
BIGSUB   21        0    7.21601E+03     0.000     0.000   265.043     0.000     0.000     0.000     0.000     0.005     0.447     0.000     0.000     0.000     0.000     0.000     0.000     0.081     0.004     0.000 .00000E+00 0.000E+00 0.000E+00 0.000E+00 0.000E+00 0.000E+00
BIGSUB   22        0    7.83955E+02     0.000     0.000   269.346     0.000     0.000     0.000     0.000     0.005     0.466     0.000     0.000     0.000     0.000     0.000     0.000     0.076     0.002     0.000 .00000E+00 0.000E+00 0.000E+00 0.000E+00 0.000E+00 0.000E+00
BIGSUB   23        0    7.17469E+03     0.000     0.000   228.693     0.000     0.000     0.000     0.000     0.046     0.594     0.000     0.000     0.000     0.000     0.000     0.000     0.108     0.012     0.000 .00000E+00 0.000E+00 0.000E+00 0.000E+00 0.000E+00 0.000E+00
BIGSUB   24        0    7.88807E+02     0.000     0.000   258.037     0.000     0.000     0.000     0.000     0.022     0.719     0.000     0.000     0.000     0.000     0.000     0.000     0.145     0.000     0.000 .00000E+00 0.000E+00 0.000E+00 0.000E+00 0.000E+00 0.000E+00
BIGSUB   25        0    7.20504E+03     1.114     0.000   217.608     1.114     0.000     0.000     0.000     0.086     0.734     0.000     0.000     0.000     0.000     0.000     0.000     0.123     0.007     0.000 .00000E+00 0.000E+00 0.000E+00 0.000E+00 0.000E+00 0.000E+00
BIGSUB   26        0    7.50071E+03     1.095     0.000   186.933     1.095     0.000     0.000     0.000     0.000     0.441     0.000     0.000     0.000     0.000     0.000     0.000     0.061     0.026     0.000 .00000E+00 0.000E+00 0.000E+00 0.000E+00 0.000E+00 0.000E+00
BIGSUB   27        0    7.24777E+03     0.000     0.000   246.908     0.000     0.000     0.000     0.000     0.144     0.992     0.000     0.000     0.000     0.000     0.000     0.000     0.163     0.008     0.000 .00000E+00 0.000E+00 0.000E+00 0.000E+00 0.000E+00 0.000E+00
BIGSUB    1        0    8.46640E+03     0.000     0.000   213.574     0.000     0.000     0.000     0.000     0.000     0.439     0.000     0.000     0.000     0.000     0.000     0.000     0.040     0.003     0.000 .00000E+00 0.000E+00 0.000E+00 0.000E+00 0.000E+00 0.000E+00
BIGSUB    2        0    8.46416E+03     0.404     0.000   210.193     0.404     0.000     0.000     0.000     0.106     1.129     0.000     0.000     0.000     0.000     0.000     0.000     0.032     0.001     0.000 .00000E+00 0.000E+00 0.000E+00 0.000E+00 0.000E+00 0.000E+00
BIGSUB    3        0    8.23322E+03     0.000     0.000   220.307     0.000     0.000     0.000     0.000     0.000     0.416     0.000     0.000     0.000     0.000     0.000     0.000     0.033     0.002     0.000 .00000E+00 0.000E+00 0.000E+00 0.000E+00 0.000E+00 0.000E+00
BIGSUB    4        0    8.15154E+03     0.000     0.000   214.102     0.000     0.000     0.000     0.000     0.000     0.433     0.000     0.000     0.000     0.000     0.000     0.000     0.036     0.005     0.000 .00000E+00 0.000E+00 0.000E+00 0.000E+00 0.000E+00 0.000E+00
BIGSUB    5        0    8.37967E+03     0.000     0.000   200.886     0.000     0.000     0.000     0.000     0.000     0.311     0.000     0.000     0.000     0.000     0.000     0.000     0.003     0.001     0.000 .00000E+00 0.000E+00 0.000E+00 0.000E+00 0.000E+00 0.000E+00
BIGSUB    6        0    8.15500E+03     0.000     0.000   219.587     0.000     0.000     0.000     0.000     0.000     0.282     0.000     0.000     0.000     0.000     0.000     0.000     0.008     0.000     0.000 .00000E+00 0.000E+00 0.000E+00 0.000E+00 0.000E+00 0.000E+00
BIGSUB    7        0    8.15506E+03     0.000     0.000   244.140     0.000     0.000     0.000     0.000     0.000     0.360     0.000     0.000     0.000     0.000     0.000     0.000     0.024     0.004     0.000 .00000E+00 0.000E+00 0.000E+00 0.000E+00 0.000E+00 0.000E+00
BIGSUB    8        0    8.35579E+03     0.403     0.000   202.223     0.403     0.000     0.000     0.000     0.001     0.884     0.000     0.000     0.000     0.000     0.000     0.000     0.009     0.001     0.000 .00000E+00 0.000E+00 0.000E+00 0.000E+00 0.000E+00 0.000E+00
BIGSUB    9        0    8.33888E+03     0.405     0.000   203.056     0.405     0.000     0.000     0.000     0.000     0.856     0.000     0.000     0.000     0.000     0.000     0.000     0.010     0.001     0.000 .00000E+00 0.000E+00 0.000E+00 0.000E+00 0.000E+00 0.000E+00
BIGSUB   10        0    8.32002E+03     0.000     0.000   198.076     0.000     0.000     0.000     0.000     0.000     0.362     0.000     0.000     0.000     0.000     0.000     0.000     0.003     0.001     0.000 .00000E+00 0.000E+00 0.000E+00 0.000E+00 0.000E+00 0.000E+00
BIGSUB   11        0    8.19677E+03     0.000     0.000   191.063     0.000     0.000     0.000     0.000     0.000     0.343     0.000     0.000     0.000     0.000     0.000     0.000     0.003     0.000     0.000 .00000E+00 0.000E+00 0.000E+00 0.000E+00 0.000E+00 0.000E+00
BIGSUB   12        0    8.15959E+03     0.000     0.000   203.019     0.000     0.000     0.000     0.000     0.000     0.341     0.000     0.000     0.000     0.000     0.000     0.000     0.003     0.001     0.000 .00000E+00 0.000E+00 0.000E+00 0.000E+00 0.000E+00 0.000E+00
BIGSUB   13        0    8.23285E+03     0.000     0.000   192.442     0.000     0.000     0.000     0.000     0.000     0.320     0.000     0.000     0.000     0.000     0.000     0.000     0.003     0.001     0.000 .00000E+00 0.000E+00 0.000E+00 0.000E+00 0.000E+00 0.000E+00
BIGSUB   14        0    8.81057E+02     0.000     0.000   247.773     0.000     0.000     0.000     0.000     0.000     0.250     0.000     0.000     0.000     0.000     0.000     0.000     0.011     0.004     0.000 .00000E+00 0.000E+00 0.000E+00 0.000E+00 0.000E+00 0.000E+00
BIGSUB   15        0    8.18740E+03     0.000     0.000   241.528     0.000     0.000     0.000     0.000     0.000     0.404     0.000     0.000     0.000     0.000     0.000     0.000     0.031     0.004     0.000 .00000E+00 0.000E+00 0.000E+00 0.000E+00 0.000E+00 0.000E+00
BIGSUB   16        0    8.23106E+02     0.000     0.000   265.241     0.000     0.000     0.000     0.000     0.000     0.364     0.000     0.000     0.000     0.000     0.000     0.000     0.032     0.003     0.000 .00000E+00 0.000E+00 0.000E+00 0.000E+00 0.000E+00 0.000E+00
BIGSUB   17        0    8.28933E+02     0.000     0.000   266.999     0.000     0.000     0.000     0.000     0.000     0.329     0.000     0.000     0.000     0.000     0.000     0.000     0.041     0.018     0.000 .00000E+00 0.000E+00 0.000E+00 0.000E+00 0.000E+00 0.000E+00
BIGSUB   18        0    8.66670E+02     0.000     0.000   266.192     0.000     0.000     0.000     0.000     0.000     0.342     0.000     0.000     0.000     0.000     0.000     0.000     0.013     0.001     0.000 .00000E+00 0.000E+00 0.000E+00 0.000E+00 0.000E+00 0.000E+00
BIGSUB   19        0    8.38495E+03     0.405     0.000   237.225     0.405     0.000     0.000     0.000     0.074     1.212     0.000     0.000     0.000     0.000     0.000     0.000     0.044     0.002     0.000 .00000E+00 0.000E+00 0.000E+00 0.000E+00 0.000E+00 0.000E+00
BIGSUB   20        0    8.22012E+03     0.000     0.000   256.981     0.000     0.000     0.000     0.000     0.000     0.314     0.000     0.000     0.000     0.000     0.000     0.000     0.031     0.002     0.000 .00000E+00 0.000E+00 0.000E+00 0.000E+00 0.000E+00 0.000E+00
BIGSUB   21        0    8.21601E+03     0.000     0.000   259.252     0.000     0.000     0.000     0.000     0.000     0.305     0.000     0.000     0.000     0.000     0.000     0.000     0.025     0.000     0.000 .00000E+00 0.000E+00 0.000E+00 0.000E+00 0.000E+00 0.000E+00
BIGSUB   22        0    8.83955E+02     0.000     0.000   263.588     0.000     0.000     0.000     0.000     0.000     0.323     0.000     0.000     0.000     0.000     0.000     0.000     0.024     0.000     0.000 .00000E+00 0.000E+00 0.000E+00 0.000E+00 0.000E+00 0.000E+00
BIGSUB   23        0    8.17469E+03     0.000     0.000   230.417     0.000     0.000     0.000     0.000     0.000     0.375     0.000     0.000     0.000     0.000     0.000     0.000     0.034     0.003     0.000 .00000E+00 0.000E+00 0.000E+00 0.000E+00 0.000E+00 0.000E+00
BIGSUB   24        0    8.88807E+02     0.000     0.000   252.435     0.000     0.000     0.000     0.000     0.000     0.493     0.000     0.000     0.000     0.000     0.000     0.000     0.065     0.000     0.000 .00000E+00 0.000E+00 0.000E+00 0.000E+00 0.000E+00 0.000E+00
BIGSUB   25        0    8.20504E+03     0.000     0.000   230.464     0.000     0.000     0.000     0.000     0.000     0.437     0.000     0.000     0.000     0.000     0.000     0.000     0.032     0.001     0.000 .00000E+00 0.000E+00 0.000E+00 0.000E+00 0.000E+00 0.000E+00
BIGSUB   26        0    8.50071E+03     0.000     0.000   200.071     0.000     0.000     0.000     0.000     0.000     0.298     0.000     0.000     0.000     0.000     0.000     0.000     0.003     0.001     0.000 .00000E+00 0.000E+00 0.000E+00 0.000E+00 0.000E+00 0.000E+00
BIGSUB   27        0    8.24777E+03     0.000     0.000   241.516     0.000     0.000     0.000     0.000     0.000     0.594     0.000     0.000     0.000     0.000     0.000     0.000     0.063     0.003     0.000 .00000E+00 0.000E+00 0.000E+00 0.000E+00 0.000E+00 0.000E+00
BIGSUB    1        0    9.46640E+03     7.070     0.000   160.588     6.637     0.003     0.000     0.000     0.000     0.554     0.000     0.000     0.000     0.000     0.000     0.000     0.262     0.050     0.000 .00000E+00 0.000E+00 0.000E+00 0.000E+00 0.000E+00 0.000E+00
BIGSUB    2        0    9.46416E+03    15.766     0.000   150.121    12.421     0.752     0.000     0.000     0.000     2.232     0.000     0.000     0.000     0.000     0.000     0.000     1.504     0.057     0.000 .00000E+00 0.000E+00 0.000E+00 0.000E+00 0.000E+00 0.000E+00
BIGSUB    3        0    9.23322E+03     7.087     0.000   165.528     6.616     0.002     0.000     0.000     0.000     0.575     0.000     0.000     0.000     0.000     0.000     0.000     0.295     0.062     0.000 .00000E+00 0.000E+00 0.000E+00 0.000E+00 0.000E+00 0.000E+00
BIGSUB    4        0    9.15154E+03     7.089     0.000   160.973     6.654     0.004     0.000     0.000     0.000     0.552     0.000     0.000     0.000     0.000     0.000     0.000     0.262     0.070     0.000 .00000E+00 0.000E+00 0.000E+00 0.000E+00 0.000E+00 0.000E+00
BIGSUB    5        0    9.37967E+03    19.245     0.000   138.055    12.009     0.754     1.208     0.000     0.000     3.828     0.000     0.000     0.000     0.000     0.000     0.000     3.601     0.352     0.000 .00000E+00 0.000E+00 0.000E+00 0.000E+00 0.000E+00 0.000E+00
BIGSUB    6        0    9.15500E+03     7.053     0.000   165.126     6.365     0.002     0.000     0.000     0.000     0.626     0.000     0.000     0.000     0.000     0.000     0.000     0.425     0.079     0.000 .00000E+00 0.000E+00 0.000E+00 0.000E+00 0.000E+00 0.000E+00
BIGSUB    7        0    9.15506E+03     6.987     0.000   187.795     6.473     0.001     0.000     0.000     0.000     0.562     0.000     0.000     0.000     0.000     0.000     0.000     0.316     0.088     0.000 .00000E+00 0.000E+00 0.000E+00 0.000E+00 0.000E+00 0.000E+00
BIGSUB    8        0    9.35579E+03    15.718     0.000   143.377    12.081     0.947     0.000     0.000     0.000     2.214     0.000     0.000     0.000     0.000     0.000     0.000     1.572     0.141     0.000 .00000E+00 0.000E+00 0.000E+00 0.000E+00 0.000E+00 0.000E+00
BIGSUB    9        0    9.33888E+03    15.787     0.000   143.941    12.010     0.906     0.000     0.000     0.000     2.290     0.000     0.000     0.000     0.000     0.000     0.000     1.668     0.103     0.000 .00000E+00 0.000E+00 0.000E+00 0.000E+00 0.000E+00 0.000E+00
BIGSUB   10        0    9.32002E+03    19.041     0.000   135.119    12.849     0.808     1.181     0.000     0.000     3.176     0.000     0.000     0.000     0.000     0.000     0.000     2.912     0.293     0.000 .00000E+00 0.000E+00 0.000E+00 0.000E+00 0.000E+00 0.000E+00
BIGSUB   11        0    9.19677E+03    18.410     0.000   130.179    11.774     0.715     1.185     0.000     0.000     3.696     0.000     0.000     0.000     0.000     0.000     0.000     3.446     0.002     0.000 .00000E+00 0.000E+00 0.000E+00 0.000E+00 0.000E+00 0.000E+00
BIGSUB   12        0    9.15959E+03    19.443     0.000   139.552    12.141     0.612     1.464     0.000     0.000     3.774     0.000     0.000     0.000     0.000     0.000     0.000     3.526     0.555     0.000 .00000E+00 0.000E+00 0.000E+00 0.000E+00 0.000E+00 0.000E+00
BIGSUB   13        0    9.23285E+03    18.536     0.000   131.150    11.803     0.929     0.807     0.000     0.000     3.826     0.000     0.000     0.000     0.000     0.000     0.000     3.593     0.422     0.000 .00000E+00 0.000E+00 0.000E+00 0.000E+00 0.000E+00 0.000E+00
BIGSUB   14        0    9.81057E+02     6.886     0.000   186.950     6.563     0.002     0.000     0.000     0.000     0.358     0.000     0.000     0.000     0.000     0.000     0.000     0.183     0.068     0.000 .00000E+00 0.000E+00 0.000E+00 0.000E+00 0.000E+00 0.000E+00
BIGSUB   15        0    9.18740E+03     7.089     0.000   186.092     6.620     0.001     0.000     0.000     0.000     0.564     0.000     0.000     0.000     0.000     0.000     0.000     0.292     0.056     0.000 .00000E+00 0.000E+00 0.000E+00 0.000E+00 0.000E+00 0.000E+00
BIGSUB   16        0    9.23106E+02     6.805     0.000   198.333     6.706     0.000     0.000     0.000     0.000     0.304     0.000     0.000     0.000     0.000     0.000     0.000     0.062     0.030     0.000 .00000E+00 0.000E+00 0.000E+00 0.000E+00 0.000E+00 0.000E+00
BIGSUB   17        0    9.28933E+02     6.837     0.000   199.748     6.651     0.002     0.000     0.000     0.000     0.332     0.000     0.000     0.000     0.000     0.000     0.000     0.121     0.044     0.000 .00000E+00 0.000E+00 0.000E+00 0.000E+00 0.000E+00 0.000E+00
BIGSUB   18        0    9.66670E+02     6.863     0.000   198.216     6.745     0.001     0.000     0.000     0.000     0.310     0.000     0.000     0.000     0.000     0.000     0.000     0.070     0.051     0.000 .00000E+00 0.000E+00 0.000E+00 0.000E+00 0.000E+00 0.000E+00
BIGSUB   19        0    9.38495E+03    15.798     0.000   172.993    12.746     0.819     0.000     0.000     0.000     2.080     0.000     0.000     0.000     0.000     0.000     0.000     1.275     0.083     0.000 .00000E+00 0.000E+00 0.000E+00 0.000E+00 0.000E+00 0.000E+00
BIGSUB   20        0    9.22012E+03     6.642     0.000   191.251     6.457     0.001     0.000     0.000     0.000     0.323     0.000     0.000     0.000     0.000     0.000     0.000     0.116     0.035     0.000 .00000E+00 0.000E+00 0.000E+00 0.000E+00 0.000E+00 0.000E+00
BIGSUB   21        0    9.21601E+03     4.962     0.000   194.940     4.676     0.000     0.000     0.000     0.000     0.418     0.000     0.000     0.000     0.000     0.000     0.000     0.212     0.076     0.000 .00000E+00 0.000E+00 0.000E+00 0.000E+00 0.000E+00 0.000E+00
BIGSUB   22        0    9.83955E+02     4.899     0.000   199.362     4.647     0.000     0.000     0.000     0.000     0.409     0.000     0.000     0.000     0.000     0.000     0.000     0.189     0.107     0.000 .00000E+00 0.000E+00 0.000E+00 0.000E+00 0.000E+00 0.000E+00
BIGSUB   23        0    9.17469E+03     4.962     0.000   168.618     4.741     0.000     0.000     0.000     0.000     0.416     0.000     0.000     0.000     0.000     0.000     0.000     0.166     0.050     0.000 .00000E+00 0.000E+00 0.000E+00 0.000E+00 0.000E+00 0.000E+00
BIGSUB   24        0    9.88807E+02     4.828     0.000   189.868     4.709     0.000     0.000     0.000     0.000     0.429     0.000     0.000     0.000     0.000     0.000     0.000     0.115     0.000     0.000 .00000E+00 0.000E+00 0.000E+00 0.000E+00 0.000E+00 0.000E+00
BIGSUB   25        0    9.20504E+03    19.443     0.000   156.482    13.475     0.831     1.536     0.000     0.000     2.661     0.000     0.000     0.000     0.000     0.000     0.000     2.363     0.296     0.000 .00000E+00 0.000E+00 0.000E+00 0.000E+00 0.000E+00 0.000E+00
BIGSUB   26        0    9.50071E+03    19.104     0.000   137.767    11.891     0.636     1.139     0.000     0.000     3.967     0.000     0.000     0.000     0.000     0.000     0.000     3.750     0.659     0.000 .00000E+00 0.000E+00 0.000E+00 0.000E+00 0.000E+00 0.000E+00
BIGSUB   27        0    9.24777E+03    24.644     0.000   177.965    14.201     0.104     7.106     0.000     0.000     2.999     0.000     0.000     0.000     0.000     0.000     0.000     2.602     0.185     0.000 .00000E+00 0.000E+00 0.000E+00 0.000E+00 0.000E+00 0.000E+00
BIGSUB    1        0   10.46640E+03    48.175     0.000    95.861    19.896     0.966    16.459     0.001     0.000     7.445     0.000     0.000     0.000     0.000     0.000     0.000     7.201     0.630     0.000 .00000E+00 0.000E+00 0.000E+00 0.000E+00 0.000E+00 0.000E+00
BIGSUB    2        0   10.46416E+03   109.050     0.000    87.009    24.187     1.222    41.076     4.955     2.494    36.039     2.345     0.850     0.109     0.004     0.000     0.141    27.972     0.138     0.000 .00000E+00 0.000E+00 0.000E+00 0.000E+00 0.000E+00 0.000E+00
BIGSUB    3        0   10.23322E+03    48.296     0.000    99.986    20.151     1.027    15.568     0.000     0.004     8.074     0.000     0.000     0.000     0.000     0.000     0.000     7.837     0.837     0.000 .00000E+00 0.000E+00 0.000E+00 0.000E+00 0.000E+00 0.000E+00
BIGSUB    4        0   10.15154E+03    48.304     0.000    96.136    19.663     1.263    16.414     0.001     0.000     7.499     0.000     0.000     0.000     0.000     0.000     0.000     7.256     0.888     0.000 .00000E+00 0.000E+00 0.000E+00 0.000E+00 0.000E+00 0.000E+00
BIGSUB    5        0   10.37967E+03    43.501     0.000    87.749    25.201     1.330     4.537     0.000     0.000    11.702     0.000     0.000     0.000     0.000     0.000     0.000    11.514     0.547     0.000 .00000E+00 0.000E+00 0.000E+00 0.000E+00 0.000E+00 0.000E+00
BIGSUB    6        0   10.15500E+03    48.064     0.000    99.726    18.887     1.241    11.521     0.001     0.000    11.793     0.000     0.000     0.000     0.000     0.000     0.000    11.625     1.075     0.000 .00000E+00 0.000E+00 0.000E+00 0.000E+00 0.000E+00 0.000E+00
BIGSUB    7        0   10.15506E+03    47.611     0.000   113.681    20.893     1.055    13.563     0.000     0.000     8.677     0.000     0.000     0.000     0.000     0.000     0.000     8.473     1.152     0.000 .00000E+00 0.000E+00 0.000E+00 0.000E+00 0.000E+00 0.000E+00
BIGSUB    8        0   10.35579E+03   108.715     0.000    82.789    24.674     2.756    35.371     5.739     1.842    38.493     4.740     1.015     0.129     0.012     0.001     0.179    30.369     0.426     0.001 .00000E+00 0.000E+00 0.000E+00 0.000E+00 0.000E+00 0.000E+00
BIGSUB    9        0   10.33888E+03   109.192     0.000    83.130    24.370     2.371    34.779     5.305     1.671    39.246     4.601     0.959     0.121     0.009     0.001     0.172    31.742     0.242     0.000 .00000E+00 0.000E+00 0.000E+00 0.000E+00 0.000E+00 0.000E+00
BIGSUB   10        0   10.32002E+03    43.040     0.000    87.757    26.910     1.289     5.062     0.000     0.000     9.583     0.000     0.000     0.000     0.000     0.000     0.000     9.365     0.475     0.000 .00000E+00 0.000E+00 0.000E+00 0.000E+00 0.000E+00 0.000E+00
BIGSUB   11        0   10.19677E+03    41.615     0.000    84.609    24.659     1.021     4.775     0.000     0.000    11.239     0.000     0.000     0.000     0.000     0.000     0.000    11.033     0.001     0.000 .00000E+00 0.000E+00 0.000E+00 0.000E+00 0.000E+00 0.000E+00
BIGSUB   12        0   10.15959E+03    43.950     0.000    88.725    25.430     0.902     5.196     0.000     0.000    11.434     0.000     0.000     0.000     0.000     0.000     0.000    11.226     0.826     0.000 .00000E+00 0.000E+00 0.000E+00 0.000E+00 0.000E+00 0.000E+00
BIGSUB   13        0   10.23285E+03    41.899     0.000    85.247    24.626     1.277     4.278     0.000     0.000    11.800     0.000     0.000     0.000     0.000     0.000     0.000    11.610     0.698     0.000 .00000E+00 0.000E+00 0.000E+00 0.000E+00 0.000E+00 0.000E+00
BIGSUB   14        0   10.81057E+02    36.355     0.000   108.854    19.868     1.391     8.285     0.000     0.000     4.804     0.000     0.000     0.000     0.000     0.000     0.000     4.661     1.038     0.000 .00000E+00 0.000E+00 0.000E+00 0.000E+00 0.000E+00 0.000E+00
BIGSUB   15        0   10.18740E+03    48.304     0.000   111.305    20.442     0.708    15.560     0.000     0.000     8.101     0.000     0.000     0.000     0.000     0.000     0.000     7.873     0.643     0.000 .00000E+00 0.000E+00 0.000E+00 0.000E+00 0.000E+00 0.000E+00
BIGSUB   16        0   10.23106E+02    35.926     0.000   116.503    20.736     1.123    11.814     0.000     0.000     1.574     0.000     0.000     0.000     0.000     0.000     0.000     1.374     0.417     0.000 .00000E+00 0.000E+00 0.000E+00 0.000E+00 0.000E+00 0.000E+00
BIGSUB   17        0   10.28933E+02    36.096     0.000   117.302    18.867     1.844    10.984     0.000     0.000     3.069     0.000     0.000     0.000     0.000     0.000     0.000     2.895     0.570     0.000 .00000E+00 0.000E+00 0.000E+00 0.000E+00 0.000E+00 0.000E+00
BIGSUB   18        0   10.66670E+02    36.234     0.000   115.071    20.271     1.242    11.962     0.000     0.000     1.976     0.000     0.000     0.000     0.000     0.000     0.000     1.778     0.739     0.000 .00000E+00 0.000E+00 0.000E+00 0.000E+00 0.000E+00 0.000E+00
BIGSUB   19        0   10.38495E+03   109.266     0.000   100.522    25.104     1.333    45.035     4.397     2.535    32.085     2.246     0.913     0.117     0.003     0.000     0.153    24.470     0.216     0.001 .00000E+00 0.000E+00 0.000E+00 0.000E+00 0.000E+00 0.000E+00
BIGSUB   20        0   10.22012E+03    35.065     0.000   111.098    20.034     1.181    10.061     0.000     0.000     2.946     0.000     0.000     0.000     0.000     0.000     0.000     2.776     0.504     0.000 .00000E+00 0.000E+00 0.000E+00 0.000E+00 0.000E+00 0.000E+00
BIGSUB   21        0   10.21601E+03    29.874     0.000   123.073    22.707     0.948     1.130     0.000     0.000     3.834     0.000     0.000     0.000     0.000     0.000     0.000     3.675     0.893     0.000 .00000E+00 0.000E+00 0.000E+00 0.000E+00 0.000E+00 0.000E+00
BIGSUB   22        0   10.83955E+02    29.491     0.000   126.946    22.651     0.718     1.497     0.000     0.000     3.567     0.000     0.000     0.000     0.000     0.000     0.000     3.397     1.342     0.000 .00000E+00 0.000E+00 0.000E+00 0.000E+00 0.000E+00 0.000E+00
BIGSUB   23        0   10.17469E+03    29.874     0.000   106.565    22.680     1.223     1.864     0.000     0.000     3.082     0.000     0.000     0.000     0.000     0.000     0.000     2.887     0.655     0.000 .00000E+00 0.000E+00 0.000E+00 0.000E+00 0.000E+00 0.000E+00
BIGSUB   24        0   10.88807E+02    29.067     0.000   119.888    23.751     0.386     2.793     0.000     0.000     1.794     0.000     0.000     0.000     0.000     0.000     0.000     1.549     0.001     0.000 .00000E+00 0.000E+00 0.000E+00 0.000E+00 0.000E+00 0.000E+00
BIGSUB   25        0   10.20504E+03    43.950     0.000   100.014    28.027     2.046     5.751     0.000     0.034     7.840     0.000     0.000     0.000     0.000     0.000     0.000     7.559     0.486     0.000 .00000E+00 0.000E+00 0.000E+00 0.000E+00 0.000E+00 0.000E+00
BIGSUB   26        0   10.50071E+03    43.184     0.000    87.530    24.902     0.937     4.414     0.000     0.000    12.153     0.000     0.000     0.000     0.000     0.000     0.000    11.973     1.047     0.000 .00000E+00 0.000E+00 0.000E+00 0.000E+00 0.000E+00 0.000E+00
BIGSUB   27        0   10.24777E+03    31.347     0.000   117.456    25.075     0.504     2.483     0.000     0.034     4.443     0.000     0.000     0.000     0.000     0.000     0.000     4.047     0.119     0.000 .00000E+00 0.000E+00 0.000E+00 0.000E+00 0.000E+00 0.000E+00
BIGSUB    1        0   11.46640E+03    68.576     0.000    68.838    17.594     6.377    28.006     0.577     2.486    15.274     0.232     0.353     0.043     0.000     0.000     0.057    11.904     0.219     0.001 .00000E+00 0.000E+00 0.000E+00 0.000E+00 0.000E+00 0.000E+00
BIGSUB    2        0   11.46416E+03   181.312     0.000    67.019    18.424     5.818    66.075    33.129    17.479    90.330     8.971     4.980     0.627     0.003     0.003     0.860    38.969     0.045     0.002 .00000E+00 0.000E+00 0.000E+00 0.000E+00 0.000E+00 0.000E+00
BIGSUB    3        0   11.23322E+03    68.748     0.000    71.946    17.813     6.212    27.335     0.000     2.069    15.275     0.000     0.000     0.000     0.000     0.000     0.000    12.912     0.301     0.001 .00000E+00 0.000E+00 0.000E+00 0.000E+00 0.000E+00 0.000E+00
BIGSUB    4        0   11.15154E+03    68.760     0.000    69.063    17.602     6.505    28.278     0.393     2.384    15.084     0.165     0.253     0.031     0.000     0.000     0.041    12.001     0.309     0.001 .00000E+00 0.000E+00 0.000E+00 0.000E+00 0.000E+00 0.000E+00
BIGSUB    5        0   11.37967E+03    82.290     0.000    65.835    13.777     5.297    23.818     8.209     0.000    26.520     4.054     7.469     0.887     0.004     0.002     1.242    18.136     0.172     0.000 .00000E+00 0.000E+00 0.000E+00 0.000E+00 0.000E+00 0.000E+00
BIGSUB    6        0   11.15500E+03    68.418     0.000    71.821    16.987     5.727    20.376     1.112     0.008    19.952     0.737     0.987     0.118     0.001     0.000     0.157    18.618     0.377     0.000 .00000E+00 0.000E+00 0.000E+00 0.000E+00 0.000E+00 0.000E+00
BIGSUB    7        0   11.15506E+03    67.774     0.000    84.365    18.765     5.911    24.787     0.000     0.715    15.070     0.000     0.000     0.000     0.000     0.000     0.000    14.098     0.429     0.001 .00000E+00 0.000E+00 0.000E+00 0.000E+00 0.000E+00 0.000E+00
BIGSUB    8        0   11.35579E+03   180.755     0.000    63.269    20.061     7.691    56.838    35.017    14.660    92.865    15.824     5.732     0.717     0.006     0.003     1.042    42.535     0.124     0.005 .00000E+00 0.000E+00 0.000E+00 0.000E+00 0.000E+00 0.000E+00
BIGSUB    9        0   11.33888E+03   181.549     0.000    63.517    19.372     7.070    55.227    35.500    14.232    94.517    16.797     5.409     0.673     0.005     0.002     1.029    44.146     0.067     0.003 .00000E+00 0.000E+00 0.000E+00 0.000E+00 0.000E+00 0.000E+00
BIGSUB   10        0   11.32002E+03    81.419     0.000    64.235    14.367     6.116    27.387     8.398     0.033    23.655     1.902     4.741     0.561     0.004     0.002     0.734    15.025     0.165     0.000 .00000E+00 0.000E+00 0.000E+00 0.000E+00 0.000E+00 0.000E+00
BIGSUB   11        0   11.19677E+03    78.724     0.000    61.816    13.164     5.192    27.020     3.880     0.000    22.418     1.032     2.360     0.289     0.000     0.001     0.408    18.347     0.001     0.000 .00000E+00 0.000E+00 0.000E+00 0.000E+00 0.000E+00 0.000E+00
BIGSUB   12        0   11.15959E+03    83.140     0.000    66.609    13.784     4.827    26.050     5.935     0.007    24.258     2.049     4.511     0.533     0.004     0.001     0.739    18.122     0.248     0.000 .00000E+00 0.000E+00 0.000E+00 0.000E+00 0.000E+00 0.000E+00
BIGSUB   13        0   11.23285E+03    79.260     0.000    62.315    13.226     5.414    25.444     3.461     0.000    23.082     1.768     3.292     0.385     0.003     0.001     0.533    19.447     0.240     0.000 .00000E+00 0.000E+00 0.000E+00 0.000E+00 0.000E+00 0.000E+00
BIGSUB   14        0   11.81057E+02    51.038     0.000    85.679    18.176     4.980    17.561     0.181     0.067     8.373     0.147     0.204     0.024     0.000     0.000     0.032     7.954     0.459     0.000 .00000E+00 0.000E+00 0.000E+00 0.000E+00 0.000E+00 0.000E+00
BIGSUB   15        0   11.18740E+03    68.760     0.000    82.573    18.358     5.441    26.726     0.841     1.614    15.552     0.542     0.800     0.096     0.001     0.000     0.127    12.807     0.218     0.000 .00000E+00 0.000E+00 0.000E+00 0.000E+00 0.000E+00 0.000E+00
BIGSUB   16        0   11.23106E+02    50.437     0.000    92.518    17.930     4.926    24.837     0.000     0.049     2.827     0.000     0.000     0.000     0.000     0.000     0.000     2.538     0.207     0.000 .00000E+00 0.000E+00 0.000E+00 0.000E+00 0.000E+00 0.000E+00
[...]
BIGSUB   10        0    7.32002E+03     0.000     0.000   206.430     0.000     0.000     0.000     0.000     0.078     1.306     0.000     0.000     0.000     0.000     0.000     0.000     0.358     0.016     0.000 .00000E+00 0.000E+00 0.000E+00 0.000E+00 0.000E+00 0.000E+00
BIGSUB   11        0    7.19677E+03     0.000     0.000   199.112     0.000     0.000     0.000     0.000     0.034     1.279     0.000     0.000     0.000     0.000     0.000     0.000     0.415     0.000     0.000 .00000E+00 0.000E+00 0.000E+00 0.000E+00 0.000E+00 0.000E+00
BIGSUB   12        0    7.15959E+03     0.000     0.000   216.356     0.000     0.000     0.000     0.000     0.041     1.268     0.000     0.000     0.000     0.000     0.000     0.000     0.420     0.015     0.000 .00000E+00 0.000E+00 0.000E+00 0.000E+00 0.000E+00 0.000E+00
BIGSUB   13        0    7.23285E+03     0.000     0.000   200.535     0.000     0.000     0.000     0.000     0.003     1.207     0.000     0.000     0.000     0.000     0.000     0.000     0.431     0.022     0.000 .00000E+00 0.000E+00 0.000E+00 0.000E+00 0.000E+00 0.000E+00
BIGSUB   14        0    7.81057E+02     0.000     0.000   235.784     0.000     0.000     0.000     0.000     0.000     0.672     0.000     0.000     0.000     0.000     0.000     0.000     0.023     0.003     0.000 .00000E+00 0.000E+00 0.000E+00 0.000E+00 0.000E+00 0.000E+00
BIGSUB   15        0    7.18740E+03     0.000     0.000   245.351     0.000     0.000     0.000     0.000     0.000     0.909     0.000     0.000     0.000     0.000     0.000     0.000     0.043     0.003     0.000 .00000E+00 0.000E+00 0.000E+00 0.000E+00 0.000E+00 0.000E+00
BIGSUB   16        0    7.23106E+02     0.000     0.000   240.198     0.000     0.000     0.000     0.000     0.000     0.954     0.000     0.000     0.000     0.000     0.000     0.000     0.065     0.004     0.000 .00000E+00 0.000E+00 0.000E+00 0.000E+00 0.000E+00 0.000E+00
BIGSUB   17        0    7.28933E+02     0.000     0.000   241.603     0.000     0.000     0.000     0.000     0.000     0.831     0.000     0.000     0.000     0.000     0.000     0.000     0.082     0.010     0.000 .00000E+00 0.000E+00 0.000E+00 0.000E+00 0.000E+00 0.000E+00
BIGSUB   18        0    7.66670E+02     0.000     0.000   252.318     0.000     0.000     0.000     0.000     0.000     0.905     0.000     0.000     0.000     0.000     0.000     0.000     0.028     0.002     0.000 .00000E+00 0.000E+00 0.000E+00 0.000E+00 0.000E+00 0.000E+00
BIGSUB   19        0    7.38495E+03     1.013     0.000   240.136     1.013     0.000     0.000     0.000     0.707     3.222     0.000     0.000     0.000     0.000     0.000     0.000     0.424     0.026     0.000 .00000E+00 0.000E+00 0.000E+00 0.000E+00 0.000E+00 0.000E+00
BIGSUB   20        0    7.22012E+03     0.000     0.000   243.743     0.000     0.000     0.000     0.000     0.000     0.845     0.000     0.000     0.000     0.000     0.000     0.000     0.063     0.003     0.000 .00000E+00 0.000E+00 0.000E+00 0.000E+00 0.000E+00 0.000E+00
BIGSUB   21        0    7.21601E+03     0.000     0.000   263.108     0.005     0.000     0.000     0.000     0.019     1.421     0.000     0.000     0.000     0.000     0.000     0.000     0.396     0.021     0.000 .00000E+00 0.000E+00 0.000E+00 0.000E+00 0.000E+00 0.000E+00
BIGSUB   22        0    7.83955E+02     0.000     0.000   249.858     0.004     0.000     0.000     0.000     0.027     1.462     0.000     0.000     0.000     0.000     0.000     0.000     0.375     0.042     0.000 .00000E+00 0.000E+00 0.000E+00 0.000E+00 0.000E+00 0.000E+00
BIGSUB   23        0    7.17469E+03     0.000     0.000   229.992     0.026     0.000     0.000     0.000     0.053     1.591     0.000     0.000     0.000     0.000     0.000     0.000     0.360     0.030     0.000 .00000E+00 0.000E+00 0.000E+00 0.000E+00 0.000E+00 0.000E+00
BIGSUB   24        0    7.88807E+02     0.000     0.000   256.143     0.009     0.000     0.000     0.000     0.068     1.880     0.000     0.000     0.000     0.000     0.000     0.000     0.330     0.000     0.000 .00000E+00 0.000E+00 0.000E+00 0.000E+00 0.000E+00 0.000E+00
BIGSUB   25        0    7.20504E+03     0.000     0.000   230.037     0.000     0.000     0.000     0.000     0.229     1.630     0.000     0.000     0.000     0.000     0.000     0.000     0.403     0.021     0.000 .00000E+00 0.000E+00 0.000E+00 0.000E+00 0.000E+00 0.000E+00
BIGSUB   26        0    7.50071E+03     0.000     0.000   213.275     0.000     0.000     0.000     0.000     0.000     1.162     0.000     0.000     0.000     0.000     0.000     0.000     0.452     0.021     0.000 .00000E+00 0.000E+00 0.000E+00 0.000E+00 0.000E+00 0.000E+00
BIGSUB   27        0    7.24777E+03     0.000     0.000   245.107     0.000     0.000     0.000     0.000     0.000     0.797     0.000     0.000     0.000     0.000     0.000     0.000     0.129     0.002     0.000 .00000E+00 0.000E+00 0.000E+00 0.000E+00 0.000E+00 0.000E+00
BIGSUB    1        0 2014.46640E+03   301.975     0.000   911.580    82.785     0.000   137.240    12.025   165.540   271.852     3.303     1.716     0.214     0.020     0.001     0.249    84.228     1.288     0.049 .00000E+00 0.000E+00 0.000E+00 0.000E+00 0.000E+00 0.000E+00
BIGSUB    2        0 2014.46416E+03   770.122     0.000   859.135   101.428     0.000   302.888   104.929   344.044   751.803    83.529     7.948     0.996     0.090     0.002     1.316   285.545     2.235     0.137 .00000E+00 0.000E+00 0.000E+00 0.000E+00 0.000E+00 0.000E+00
BIGSUB    3        0 2014.23322E+03   302.734     0.000   898.656    85.233     0.000   134.971     4.591   163.131   269.656     0.396     0.984     0.121     0.004     0.001     0.108    91.999     2.234     0.069 .00000E+00 0.000E+00 0.000E+00 0.000E+00 0.000E+00 0.000E+00
BIGSUB    4        0 2014.15154E+03   302.786     0.000   914.115    83.621     0.000   137.932     9.904   166.396   271.613     1.795     1.136     0.140     0.017     0.002     0.119    85.194     1.842     0.079 .00000E+00 0.000E+00 0.000E+00 0.000E+00 0.000E+00 0.000E+00
BIGSUB    5        0 2014.37967E+03   360.834     0.000   852.922    85.077     0.000   108.393    28.668   121.433   317.149    48.853     8.086     1.007     0.000     0.001     1.388   160.128     0.641     0.006 .00000E+00 0.000E+00 0.000E+00 0.000E+00 0.000E+00 0.000E+00
BIGSUB    6        0 2014.15500E+03   301.282     0.000   894.869    82.641     0.000    94.089    20.050   110.731   260.544    14.541     3.704     0.456     0.016     0.001     0.549   122.740     2.773     0.040 .00000E+00 0.000E+00 0.000E+00 0.000E+00 0.000E+00 0.000E+00
BIGSUB    7        0 2014.15506E+03   298.444     0.000  1061.479    91.514     0.000   119.970     5.090   142.818   256.578     0.250     1.440     0.175     0.000     0.001     0.123    99.659     2.899     0.101 .00000E+00 0.000E+00 0.000E+00 0.000E+00 0.000E+00 0.000E+00
BIGSUB    8        0 2014.35579E+03   767.757     0.000   847.643   105.183     0.000   267.321   114.034   301.035   742.170   126.395     9.137     1.157     0.001     0.002     1.498   311.909     1.303     0.042 .00000E+00 0.000E+00 0.000E+00 0.000E+00 0.000E+00 0.000E+00
BIGSUB    9        0 2014.33888E+03   771.126     0.000   851.279   103.285     0.000   259.057   114.016   291.530   743.213   146.768     9.932     1.247     0.001     0.002     1.644   322.934     0.862     0.025 .00000E+00 0.000E+00 0.000E+00 0.000E+00 0.000E+00 0.000E+00
BIGSUB   10        0 2014.32002E+03   357.013     0.000   799.892    86.656     0.000   127.055    31.805   145.552   319.674    16.177     5.968     0.747     0.001     0.002     0.921   134.240     0.339     0.004 .00000E+00 0.000E+00 0.000E+00 0.000E+00 0.000E+00 0.000E+00
BIGSUB   11        0 2014.19677E+03   345.196     0.000   773.275    79.271     0.000   121.724    15.366   138.995   324.274    12.204     2.983     0.371     0.000     0.001     0.509   162.116     0.030     0.001 .00000E+00 0.000E+00 0.000E+00 0.000E+00 0.000E+00 0.000E+00
BIGSUB   12        0 2014.15959E+03   364.558     0.000   861.955    83.885     0.000   117.929    21.298   132.880   320.722    24.382     5.826     0.726     0.000     0.001     0.964   159.021     0.974     0.014 .00000E+00 0.000E+00 0.000E+00 0.000E+00 0.000E+00 0.000E+00
BIGSUB   13        0 2014.23285E+03   347.546     0.000   778.646    80.902     0.000   114.214    12.789   129.411   321.508    11.723     2.293     0.285     0.000     0.001     0.363   171.976     0.489     0.004 .00000E+00 0.000E+00 0.000E+00 0.000E+00 0.000E+00 0.000E+00
BIGSUB   14        0 2014.81057E+02   244.355     0.000  1057.590    83.770     0.000   103.043     3.867   106.659   179.197     2.132     0.766     0.094     0.026     0.000     0.104    62.039     1.999     0.047 .00000E+00 0.000E+00 0.000E+00 0.000E+00 0.000E+00 0.000E+00
BIGSUB   15        0 2014.18740E+03   302.786     0.000  1096.369    87.369     0.000   124.918    17.409   149.131   261.656    11.994     3.863     0.482     0.030     0.001     0.624    85.791     1.341     0.040 .00000E+00 0.000E+00 0.000E+00 0.000E+00 0.000E+00 0.000E+00
BIGSUB   16        0 2014.23106E+02   241.477     0.000  1075.912    84.374     0.000   141.355     0.695   151.361   183.353     0.025     0.124     0.015     0.000     0.000     0.012    22.210     0.705     0.044 .00000E+00 0.000E+00 0.000E+00 0.000E+00 0.000E+00 0.000E+00
BIGSUB   17        0 2014.28933E+02   242.620     0.000  1081.969    83.502     0.000   117.074    10.481   124.127   181.799     7.519     3.100     0.373     0.021     0.001     0.427    39.579     1.228     0.140 .00000E+00 0.000E+00 0.000E+00 0.000E+00 0.000E+00 0.000E+00
BIGSUB   18        0 2014.66670E+02   243.546     0.000  1104.248    83.139     0.000   139.399     2.326   149.109   184.856     1.085     0.506     0.060     0.015     0.000     0.070    24.464     1.747     0.067 .00000E+00 0.000E+00 0.000E+00 0.000E+00 0.000E+00 0.000E+00
BIGSUB   19        0 2014.38495E+03   771.649     0.000  1029.217   109.053     0.000   333.142    91.551   377.121   746.849    56.934     7.375     0.915     0.057     0.008     1.190   259.114     2.963     0.206 .00000E+00 0.000E+00 0.000E+00 0.000E+00 0.000E+00 0.000E+00
BIGSUB   20        0 2014.22012E+03   235.687     0.000  1067.358    81.312     0.000   124.694     2.032   131.513   181.895     1.082     0.519     0.061     0.016     0.000     0.059    40.355     1.199     0.036 .00000E+00 0.000E+00 0.000E+00 0.000E+00 0.000E+00 0.000E+00
BIGSUB   21        0 2014.21601E+03   382.786     0.000  1117.288    97.516     0.000   153.496    10.128   173.387   327.718    11.278     3.088     0.373     0.054     0.001     0.422   134.365     2.945     0.059 .00000E+00 0.000E+00 0.000E+00 0.000E+00 0.000E+00 0.000E+00
BIGSUB   22        0 2014.83955E+02   377.889     0.000  1091.511    95.604     0.000   161.765    16.758   183.138   328.823    14.245     2.944     0.341     0.006     0.000     0.337   118.638     3.403     0.069 .00000E+00 0.000E+00 0.000E+00 0.000E+00 0.000E+00 0.000E+00
BIGSUB   23        0 2014.17469E+03   382.787     0.000   933.747    94.123     0.000   180.878    12.431   209.862   341.184     8.832     2.949     0.357     0.071     0.001     0.328   107.432     2.153     0.087 .00000E+00 0.000E+00 0.000E+00 0.000E+00 0.000E+00 0.000E+00
BIGSUB   24        0 2014.88807E+02   372.450     0.000  1087.704    95.491     0.000   226.039     1.783   264.661   345.201     0.740     0.924     0.115     0.000     0.000     0.142    64.232     0.011     0.003 .00000E+00 0.000E+00 0.000E+00 0.000E+00 0.000E+00 0.000E+00
BIGSUB   25        0 2014.20504E+03   364.559     0.000   936.161    98.495     0.000   146.616    23.335   167.992   312.620    12.455     4.181     0.506     0.111     0.001     0.510   111.873     2.563     0.063 .00000E+00 0.000E+00 0.000E+00 0.000E+00 0.000E+00 0.000E+00
BIGSUB   26        0 2014.50071E+03   358.205     0.000   848.016    82.588     0.000   103.166    33.078   114.685   316.947    30.658     7.911     0.988     0.001     0.001     1.364   162.618     1.176     0.010 .00000E+00 0.000E+00 0.000E+00 0.000E+00 0.000E+00 0.000E+00
BIGSUB   27        0 2014.24777E+03   203.947     0.000  1058.732    86.189     0.000    89.141     1.625   108.535   159.380     1.421     0.708     0.087     0.001     0.000     0.100    41.792     0.535     0.014 .00000E+00 0.000E+00 0.000E+00 0.000E+00 0.000E+00 0.000E+00
BIGSUB    1        0 24.6.46640E+03   656.510     1.715  1418.847   146.539     0.000   313.844    27.308   270.145   477.025     8.179     6.004     0.737     0.049     0.005     0.883   163.988     2.446     0.102 .00000E+00 0.000E+00 0.000E+00 0.000E+00 0.000E+00 0.000E+00
BIGSUB    2        0 24.6.46416E+03  1391.114     1.264  1388.077   169.272     0.000   515.433   251.603   462.123  1181.379   134.385    22.078     2.749     0.396     0.012     3.745   442.102     3.342     0.195 .00000E+00 0.000E+00 0.000E+00 0.000E+00 0.000E+00 0.000E+00
BIGSUB    3        0 24.6.23322E+03   658.161     0.000  1457.871   149.411     0.000   310.206    11.426   265.984   473.847     1.001     2.880     0.351     0.005     0.004     0.343   181.033     3.305     0.125 .00000E+00 0.000E+00 0.000E+00 0.000E+00 0.000E+00 0.000E+00
BIGSUB    4        0 24.6.15154E+03   658.275     1.715  1422.864   147.304     0.000   316.014    22.538   272.201   476.655     5.119     4.603     0.562     0.041     0.005     0.587   166.225     3.497     0.161 .00000E+00 0.000E+00 0.000E+00 0.000E+00 0.000E+00 0.000E+00
BIGSUB    5        0 24.6.37967E+03   690.545     5.289  1327.157   140.782     0.000   205.112    74.669   168.396   522.131    62.748    20.284     2.488     0.029     0.005     3.443   268.898     1.242     0.014 .00000E+00 0.000E+00 0.000E+00 0.000E+00 0.000E+00 0.000E+00
BIGSUB    6        0 24.6.15500E+03   655.005     0.000  1452.589   142.634     0.000   220.119    46.205   180.418   479.902    27.685    12.584     1.532     0.087     0.004     1.955   242.348     3.981     0.076 .00000E+00 0.000E+00 0.000E+00 0.000E+00 0.000E+00 0.000E+00
BIGSUB    7        0 24.6.15506E+03   648.834     0.000  1691.807   156.033     0.000   284.048    11.751   236.090   460.066     0.683     4.061     0.493     0.003     0.004     0.390   198.118     4.217     0.171 .00000E+00 0.000E+00 0.000E+00 0.000E+00 0.000E+00 0.000E+00
BIGSUB    8        0 24.6.35579E+03  1386.843     3.443  1335.693   176.852     0.000   454.556   257.811   405.269  1174.388   186.880    22.539     2.802     0.383     0.010     3.860   488.774     3.712     0.144 .00000E+00 0.000E+00 0.000E+00 0.000E+00 0.000E+00 0.000E+00
BIGSUB    9        0 24.6.33888E+03  1392.928     3.444  1341.361   172.865     0.000   439.245   262.454   390.731  1179.094   217.430    22.925     2.842     0.275     0.008     3.997   504.135     2.443     0.086 .00000E+00 0.000E+00 0.000E+00 0.000E+00 0.000E+00 0.000E+00
BIGSUB   10        0 24.6.32002E+03   683.230     3.487  1296.191   147.065     0.000   238.323    77.563   200.263   514.614    33.213    19.320     2.379     0.024     0.008     2.964   224.976     1.084     0.020 .00000E+00 0.000E+00 0.000E+00 0.000E+00 0.000E+00 0.000E+00
BIGSUB   11        0 24.6.19677E+03   660.616     3.490  1251.832   135.052     0.000   232.325    39.227   194.602   522.084    26.719    10.808     1.332     0.000     0.003     1.849   276.738     0.064     0.002 .00000E+00 0.000E+00 0.000E+00 0.000E+00 0.000E+00 0.000E+00
BIGSUB   12        0 24.6.15959E+03   697.671     5.288  1341.427   140.340     0.000   224.426    55.353   186.718   523.958    30.756    14.231     1.740     0.030     0.005     2.334   270.761     1.971     0.030 .00000E+00 0.000E+00 0.000E+00 0.000E+00 0.000E+00 0.000E+00
BIGSUB   13        0 24.6.23285E+03   665.114     3.489  1260.787   136.701     0.000   219.633    32.523   182.551   521.347    25.492     7.939     0.968     0.022     0.003     1.239   295.384     1.532     0.019 .00000E+00 0.000E+00 0.000E+00 0.000E+00 0.000E+00 0.000E+00
BIGSUB   14        0 24.6.81057E+02   546.391     0.000  1713.084   143.109     0.000   253.582    12.474   207.240   364.685     7.649     4.367     0.527     0.029     0.002     0.624   132.366     2.639     0.085 .00000E+00 0.000E+00 0.000E+00 0.000E+00 0.000E+00 0.000E+00
BIGSUB   15        0 24.6.18740E+03   658.275     1.701  1678.607   151.074     0.000   292.173    39.575   244.559   467.934    25.923    11.965     1.474     0.052     0.004     1.894   169.291     2.495     0.083 .00000E+00 0.000E+00 0.000E+00 0.000E+00 0.000E+00 0.000E+00
BIGSUB   16        0 24.6.23106E+02   539.955     0.000  1824.035   146.810     0.000   343.193     3.543   289.699   356.602     0.634     1.354     0.165     0.001     0.001     0.183    46.303     1.028     0.074 .00000E+00 0.000E+00 0.000E+00 0.000E+00 0.000E+00 0.000E+00
BIGSUB   17        0 24.6.28933E+02   542.510     0.000  1835.459   143.581     0.000   281.791    32.466   231.344   360.490    26.732    15.518     1.886     0.036     0.003     2.294    82.677     1.649     0.250 .00000E+00 0.000E+00 0.000E+00 0.000E+00 0.000E+00 0.000E+00
BIGSUB   18        0 24.6.66670E+02   544.582     0.000  1831.325   145.183     0.000   336.750     7.929   283.758   359.639     3.405     2.679     0.323     0.009     0.002     0.371    51.216     1.825     0.094 .00000E+00 0.000E+00 0.000E+00 0.000E+00 0.000E+00 0.000E+00
BIGSUB   19        0 24.6.38495E+03  1393.872     1.258  1638.235   180.871     0.000   570.012   222.604   509.083  1165.348   100.803    22.021     2.740     0.471     0.014     3.546   405.403     4.821     0.319 .00000E+00 0.000E+00 0.000E+00 0.000E+00 0.000E+00 0.000E+00
BIGSUB   20        0 24.6.22012E+03   527.007     0.000  1769.036   142.352     0.000   302.268     6.634   251.090   357.846     3.399     2.637     0.318     0.008     0.001     0.364    85.099     1.285     0.054 .00000E+00 0.000E+00 0.000E+00 0.000E+00 0.000E+00 0.000E+00
BIGSUB   21        0 24.6.21601E+03   689.506     0.542  1800.683   154.814     0.000   276.075    32.107   226.807   492.610    23.408     9.628     1.177     0.072     0.005     1.313   220.009     4.330     0.066 .00000E+00 0.000E+00 0.000E+00 0.000E+00 0.000E+00 0.000E+00
BIGSUB   22        0 24.6.83955E+02   680.684     0.000  1830.012   152.711     0.000   287.254    51.097   236.355   491.645    43.292    14.256     1.726     0.052     0.004     2.240   189.954     4.154     0.068 .00000E+00 0.000E+00 0.000E+00 0.000E+00 0.000E+00 0.000E+00
BIGSUB   23        0 24.6.17469E+03   689.506     0.552  1529.189   151.468     0.000   319.845    38.499   273.687   501.204    18.999     9.160     1.122     0.084     0.005     1.309   173.163     3.226     0.103 .00000E+00 0.000E+00 0.000E+00 0.000E+00 0.000E+00 0.000E+00
BIGSUB   24        0 24.6.88807E+02   670.887     0.542  1753.387   153.050     0.000   410.589     9.158   354.492   489.988     1.594     2.711     0.336     0.000     0.002     0.422   105.981     0.025     0.004 .00000E+00 0.000E+00 0.000E+00 0.000E+00 0.000E+00 0.000E+00
BIGSUB   25        0 24.6.20504E+03   697.672     0.570  1520.295   162.405     0.000   281.641    59.032   237.533   498.652    34.898    16.323     2.002     0.168     0.006     2.432   188.122     3.266     0.084 .00000E+00 0.000E+00 0.000E+00 0.000E+00 0.000E+00 0.000E+00
BIGSUB   26        0 24.6.50071E+03   685.513     5.284  1320.729   137.649     0.000   193.800    85.593   157.587   524.181    44.257    21.095     2.580     0.054     0.006     3.541   271.395     2.277     0.023 .00000E+00 0.000E+00 0.000E+00 0.000E+00 0.000E+00 0.000E+00
BIGSUB   27        0 24.6.24777E+03   467.773     0.387  1722.442   137.041     0.000   244.945     9.584   196.419   314.104     5.052     4.159     0.510     0.032     0.001     0.651    95.931     0.942     0.045 .00000E+00 0.000E+00 0.000E+00 0.000E+00 0.000E+00 0.000E+00
