1
    SWAT Aug 6  VER 2025/Rev 699                                                                         0/ 0/   0      0: 0: 0

    General Input/Output section (file.cio):                                        
    10/21/2025 12:00:00 AM ARCGIS-SWAT interface AV                                 
                                                                                    


           RES  MON    VOLUMEm3  FLOW_INcms FLOW_OUTcms    PRECIPm3      EVAPm3   SEEPAGEm3  SED_INtons SED_OUTtons SED_CONCppm   ORGN_INkg  ORGN_OUTkg RES_ORGNppm   ORGP_INkg  ORGP_OUTkg RES_ORGPppm    NO3_INkg   NO3_OUTkg  RES_NO3ppm    NO2_INkg   NO2_OUTkg  RES_NO2ppm    NH3_INkg   NH3_OUTkg  RES_NH3ppm   MINP_INkg  MINP_OUTkg RES_MINPppm   CHLA_INkg  CHLA_OUTkgSECCHIDEPTHm   PEST_INmg  REACTPSTmg    VOLPSTmg  SETTLPSTmgRESUSP_PSTmgDIFFUSEPSTmgREACBEDPSTmg   BURYPSTmg  PEST_OUTmgPSTCNCWmg/m3PSTCNCBmg/m3
RES          1    1  0.2363E+09  0.8821E+02  0.0000E+00  0.4346E+06  0.4134E+06  0.0000E+00  0.2362E+05  0.0000E+00  0.6321E+01  0.1050E+08  0.0000E+00  0.5593E+02  0.2881E+07  0.0000E+00  0.1512E+02  0.2808E+06  0.0000E+00  0.1468E+01  0.4981E+04  0.0000E+00  0.1484E-01  0.5123E+06  0.0000E+00  0.1895E+01  0.3009E+06  0.0000E+00  0.1580E+01  0.1200E+06  0.0000E+00  0.2810E+00  0.0000E+00  0.0000E+00  0.0000E+00  0.0000E+00  0.0000E+00  0.0000E+00  0.0000E+00  0.0000E+00  0.0000E+00  0.0000E+00  0.0000E+00
RES          1    2  0.3726E+09  0.5914E+02  0.0000E+00  0.6885E+05  0.1689E+07  0.0000E+00  0.7093E+04  0.0000E+00  0.4305E+01  0.6970E+05  0.0000E+00  0.3324E+02  0.1792E+05  0.0000E+00  0.8789E+01  0.2711E+05  0.0000E+00  0.9413E+00  0.9275E+03  0.0000E+00  0.1866E-01  0.1383E+05  0.0000E+00  0.1667E+01  0.5250E+04  0.0000E+00  0.9275E+00  0.2933E+02  0.0000E+00  0.3380E+00  0.0000E+00  0.0000E+00  0.0000E+00  0.0000E+00  0.0000E+00  0.0000E+00  0.0000E+00  0.0000E+00  0.0000E+00  0.0000E+00  0.0000E+00
RES          1    3  0.4841E+09  0.4253E+02  0.0000E+00  0.8621E+06  0.3273E+07  0.0000E+00  0.5030E+04  0.0000E+00  0.4065E+01  0.4136E+04  0.0000E+00  0.2269E+02  0.1070E+04  0.0000E+00  0.5817E+01  0.8704E+05  0.0000E+00  0.6780E+00  0.1168E+03  0.0000E+00  0.1304E-01  0.7615E+03  0.0000E+00  0.1140E+01  0.2655E+03  0.0000E+00  0.6144E+00  0.0000E+00  0.0000E+00  0.3808E+00  0.0000E+00  0.0000E+00  0.0000E+00  0.0000E+00  0.0000E+00  0.0000E+00  0.0000E+00  0.0000E+00  0.0000E+00  0.0000E+00  0.0000E+00
RES          1    4  0.6660E+09  0.1586E+03  0.8824E+02  0.2996E+07  0.3445E+07  0.0000E+00  0.4160E+05  0.9170E+03  0.4233E+01  0.6934E+07  0.4631E+07  0.2015E+02  0.1923E+07  0.1198E+07  0.5180E+01  0.3631E+07  0.8863E+06  0.3146E+01  0.3850E+04  0.2584E+04  0.1118E-01  0.4042E+06  0.2484E+06  0.1062E+01  0.1783E+06  0.1190E+06  0.5206E+00  0.1066E+06  0.9075E+05  0.3991E+00  0.0000E+00  0.0000E+00  0.0000E+00  0.0000E+00  0.0000E+00  0.0000E+00  0.0000E+00  0.0000E+00  0.0000E+00  0.0000E+00  0.0000E+00
RES          1    5  0.6660E+09  0.1003E+03  0.9830E+02  0.8217E+06  0.6299E+07  0.0000E+00  0.1847E+05  0.1053E+04  0.4000E+01  0.2733E+04  0.3646E+07  0.1342E+02  0.6887E+03  0.9231E+06  0.3390E+01  0.1739E+07  0.1333E+07  0.5077E+01  0.1175E+03  0.2120E+04  0.7810E-02  0.7195E+03  0.1958E+06  0.7205E+00  0.2354E+03  0.9247E+05  0.3396E+00  0.3753E+00  0.7700E+05  0.4707E+00  0.0000E+00  0.0000E+00  0.0000E+00  0.0000E+00  0.0000E+00  0.0000E+00  0.0000E+00  0.0000E+00  0.0000E+00  0.0000E+00  0.0000E+00
RES          1    6  0.6660E+09  0.3050E+02  0.2771E+02  0.0000E+00  0.7239E+07  0.0000E+00  0.3219E+04  0.2873E+03  0.4000E+01  0.0000E+00  0.7469E+06  0.1020E+02  0.0000E+00  0.1838E+06  0.2500E+01  0.1224E+06  0.3417E+06  0.4690E+01  0.7922E+02  0.4413E+03  0.6043E-02  0.2378E+03  0.4013E+05  0.5482E+00  0.8959E+01  0.1841E+05  0.2505E+00  0.0000E+00  0.1656E+05  0.5008E+00  0.0000E+00  0.0000E+00  0.0000E+00  0.0000E+00  0.0000E+00  0.0000E+00  0.0000E+00  0.0000E+00  0.0000E+00  0.0000E+00  0.0000E+00
RES          1    7  0.6623E+09  0.3511E+01  0.1692E+01  0.0000E+00  0.8617E+07  0.0000E+00  0.1857E+03  0.1813E+02  0.4000E+01  0.0000E+00  0.4340E+05  0.9427E+01  0.0000E+00  0.1045E+05  0.2242E+01  0.3088E+04  0.2017E+05  0.4384E+01  0.3794E+02  0.2601E+02  0.5676E-02  0.8921E+02  0.2333E+04  0.5068E+00  0.1512E+02  0.1047E+04  0.2247E+00  0.0000E+00  0.9653E+03  0.5133E+00  0.0000E+00  0.0000E+00  0.0000E+00  0.0000E+00  0.0000E+00  0.0000E+00  0.0000E+00  0.0000E+00  0.0000E+00  0.0000E+00  0.0000E+00
RES          1    8  0.6539E+09  0.0000E+00  0.0000E+00  0.0000E+00  0.8358E+07  0.0000E+00  0.0000E+00  0.0000E+00  0.4000E+01  0.0000E+00  0.0000E+00  0.9177E+01  0.0000E+00  0.0000E+00  0.2118E+01  0.0000E+00  0.0000E+00  0.4268E+01  0.0000E+00  0.0000E+00  0.5543E-02  0.0000E+00  0.0000E+00  0.4934E+00  0.0000E+00  0.0000E+00  0.2122E+00  0.0000E+00  0.0000E+00  0.5235E+00  0.0000E+00  0.0000E+00  0.0000E+00  0.0000E+00  0.0000E+00  0.0000E+00  0.0000E+00  0.0000E+00  0.0000E+00  0.0000E+00  0.0000E+00
RES          1    9  0.6553E+09  0.2806E+01  0.0000E+00  0.3534E+06  0.6203E+07  0.0000E+00  0.1380E+03  0.0000E+00  0.4001E+01  0.0000E+00  0.0000E+00  0.8924E+01  0.0000E+00  0.0000E+00  0.1999E+01  0.7548E+05  0.0000E+00  0.4177E+01  0.2720E+02  0.0000E+00  0.5399E-02  0.5929E+02  0.0000E+00  0.4798E+00  0.8812E+01  0.0000E+00  0.2003E+00  0.0000E+00  0.0000E+00  0.5363E+00  0.0000E+00  0.0000E+00  0.0000E+00  0.0000E+00  0.0000E+00  0.0000E+00  0.0000E+00  0.0000E+00  0.0000E+00  0.0000E+00  0.0000E+00
RES          1   10  0.6660E+09  0.3235E+02  0.2769E+02  0.1900E+07  0.3690E+07  0.0000E+00  0.4232E+04  0.2966E+03  0.4002E+01  0.1108E+06  0.5945E+06  0.8298E+01  0.2869E+05  0.1287E+06  0.1807E+01  0.3254E+06  0.3025E+06  0.4127E+01  0.4810E+03  0.3981E+03  0.5305E-02  0.1312E+05  0.3263E+05  0.4505E+00  0.7998E+04  0.1337E+05  0.1841E+00  0.6670E+02  0.1276E+05  0.5695E+00  0.0000E+00  0.0000E+00  0.0000E+00  0.0000E+00  0.0000E+00  0.0000E+00  0.0000E+00  0.0000E+00  0.0000E+00  0.0000E+00  0.0000E+00
RES          1   11  0.6660E+09  0.8072E+02  0.8061E+02  0.2672E+07  0.2949E+07  0.0000E+00  0.1974E+05  0.8358E+03  0.4000E+01  0.1821E+07  0.1552E+07  0.7199E+01  0.4890E+06  0.3418E+06  0.1550E+01  0.1310E+06  0.7158E+06  0.3684E+01  0.2477E+04  0.1079E+04  0.5031E-02  0.1411E+06  0.8886E+05  0.4036E+00  0.6721E+05  0.3685E+05  0.1644E+00  0.1595E+05  0.3445E+05  0.5528E+00  0.0000E+00  0.0000E+00  0.0000E+00  0.0000E+00  0.0000E+00  0.0000E+00  0.0000E+00  0.0000E+00  0.0000E+00  0.0000E+00  0.0000E+00
RES          1   12  0.6660E+09  0.2553E+03  0.2571E+03  0.6298E+07  0.1483E+07  0.0000E+00  0.1247E+06  0.2817E+04  0.4035E+01  0.4796E+07  0.5938E+07  0.8036E+01  0.1276E+07  0.1438E+07  0.1939E+01  0.6049E+05  0.1272E+07  0.1757E+01  0.4108E+04  0.5191E+04  0.7188E-02  0.3461E+06  0.3950E+06  0.5365E+00  0.1522E+06  0.1689E+06  0.2295E+00  0.6991E+05  0.1372E+06  0.6025E+00  0.0000E+00  0.0000E+00  0.0000E+00  0.0000E+00  0.0000E+00  0.0000E+00  0.0000E+00  0.0000E+00  0.0000E+00  0.0000E+00  0.0000E+00
RES          1 1990  0.6660E+09  0.7113E+02  0.4883E+02  0.1641E+08  0.5366E+08  0.0000E+00  0.2480E+06  0.6224E+04  0.4237E+01  0.2424E+08  0.1715E+08  0.1706E+02  0.6617E+07  0.4224E+07  0.4327E+01  0.6483E+07  0.4872E+07  0.3208E+01  0.1720E+05  0.1184E+05  0.8698E-02  0.1433E+07  0.1003E+07  0.8159E+00  0.7124E+06  0.4500E+06  0.4494E+00  0.3125E+06  0.3697E+06  0.6025E+00  0.0000E+00  0.0000E+00  0.0000E+00  0.0000E+00  0.0000E+00  0.0000E+00  0.0000E+00  0.0000E+00  0.0000E+00  0.0000E+00  0.0000E+00
RES          1    1  0.6660E+09  0.1108E+03  0.1100E+03  0.1431E+06  0.2455E+07  0.0000E+00  0.2044E+05  0.1178E+04  0.4000E+01  0.4870E+00  0.1326E+07  0.4381E+01  0.1182E+00  0.3153E+06  0.1040E+01  0.1243E+05  0.2578E+06  0.8527E+00  0.2561E+02  0.1212E+04  0.4008E-02  0.2073E+03  0.9014E+05  0.2978E+00  0.2566E+01  0.3774E+05  0.1245E+00  0.0000E+00  0.3542E+05  0.7225E+00  0.0000E+00  0.0000E+00  0.0000E+00  0.0000E+00  0.0000E+00  0.0000E+00  0.0000E+00  0.0000E+00  0.0000E+00  0.0000E+00  0.0000E+00
RES          1    2  0.6660E+09  0.1973E+03  0.1990E+03  0.5551E+07  0.1586E+07  0.0000E+00  0.4536E+05  0.1857E+04  0.4148E+01  0.1663E+07  0.1616E+07  0.3496E+01  0.4622E+06  0.3937E+06  0.8402E+00  0.2019E+05  0.2331E+06  0.5569E+00  0.1798E+04  0.1487E+04  0.3299E-02  0.8848E+05  0.1013E+06  0.2253E+00  0.4508E+05  0.4412E+05  0.9625E-01  0.1279E+05  0.4654E+05  0.7091E+00  0.0000E+00  0.0000E+00  0.0000E+00  0.0000E+00  0.0000E+00  0.0000E+00  0.0000E+00  0.0000E+00  0.0000E+00  0.0000E+00  0.0000E+00
RES          1    3  0.6660E+09  0.3992E+03  0.4003E+03  0.6494E+07  0.3538E+07  0.0000E+00  0.1725E+06  0.5196E+04  0.4303E+01  0.5684E+07  0.5718E+07  0.4874E+01  0.1584E+07  0.1534E+07  0.1303E+01  0.1087E+05  0.1911E+06  0.1680E+00  0.2397E+04  0.3202E+04  0.2922E-02  0.1996E+06  0.2406E+06  0.2125E+00  0.1120E+06  0.1212E+06  0.1064E+00  0.1007E+06  0.1554E+06  0.7180E+00  0.0000E+00  0.0000E+00  0.0000E+00  0.0000E+00  0.0000E+00  0.0000E+00  0.0000E+00  0.0000E+00  0.0000E+00  0.0000E+00  0.0000E+00
RES          1    4  0.6660E+09  0.1850E+03  0.1837E+03  0.5885E+06  0.3966E+07  0.0000E+00  0.4268E+05  0.1905E+04  0.4000E+01  0.1527E+03  0.1086E+07  0.2181E+01  0.4146E+02  0.2856E+06  0.5726E+00  0.1167E+06  0.4257E+05  0.9568E-01  0.3308E+02  0.7730E+03  0.1555E-02  0.2639E+03  0.4822E+05  0.9688E-01  0.1894E+02  0.2425E+05  0.4862E-01  0.0000E+00  0.3591E+05  0.9469E+00  0.0000E+00  0.0000E+00  0.0000E+00  0.0000E+00  0.0000E+00  0.0000E+00  0.0000E+00  0.0000E+00  0.0000E+00  0.0000E+00  0.0000E+00
RES          1    5  0.6660E+09  0.8345E+02  0.8144E+02  0.5302E+05  0.5455E+07  0.0000E+00  0.1369E+05  0.8725E+03  0.4000E+01  0.0000E+00  0.2836E+06  0.1265E+01  0.0000E+00  0.7242E+05  0.3222E+00  0.6637E+05  0.4520E+05  0.2077E+00  0.6059E+02  0.2122E+03  0.9533E-03  0.2735E+03  0.1266E+05  0.5649E-01  0.0000E+00  0.6149E+04  0.2736E-01  0.0000E+00  0.1053E+05  0.1090E+01  0.0000E+00  0.0000E+00  0.0000E+00  0.0000E+00  0.0000E+00  0.0000E+00  0.0000E+00  0.0000E+00  0.0000E+00  0.0000E+00  0.0000E+00
RES          1    6  0.6656E+09  0.2167E+02  0.1879E+02  0.0000E+00  0.7813E+07  0.0000E+00  0.2118E+04  0.1949E+03  0.4000E+01  0.0000E+00  0.5024E+05  0.1007E+01  0.0000E+00  0.1250E+05  0.2489E+00  0.1895E+05  0.1064E+05  0.2187E+00  0.7038E+02  0.4160E+02  0.8602E-03  0.1970E+03  0.2258E+04  0.4534E-01  0.3766E+01  0.1062E+04  0.2114E-01  0.0000E+00  0.1935E+04  0.1146E+01  0.0000E+00  0.0000E+00  0.0000E+00  0.0000E+00  0.0000E+00  0.0000E+00  0.0000E+00  0.0000E+00  0.0000E+00  0.0000E+00  0.0000E+00
RES          1    7  0.6594E+09  0.9230E+00  0.0000E+00  0.0000E+00  0.8722E+07  0.0000E+00  0.2122E+02  0.0000E+00  0.4000E+01  0.0000E+00  0.0000E+00  0.9568E+00  0.0000E+00  0.0000E+00  0.2295E+00  0.8546E+04  0.0000E+00  0.2212E+00  0.2044E+02  0.0000E+00  0.8881E-03  0.5054E+02  0.0000E+00  0.4325E-01  0.1180E+02  0.0000E+00  0.1951E-01  0.0000E+00  0.0000E+00  0.1170E+01  0.0000E+00  0.0000E+00  0.0000E+00  0.0000E+00  0.0000E+00  0.0000E+00  0.0000E+00  0.0000E+00  0.0000E+00  0.0000E+00  0.0000E+00
RES          1    8  0.6660E+09  0.5343E+02  0.4775E+02  0.0000E+00  0.8605E+07  0.0000E+00  0.9290E+04  0.5116E+03  0.4002E+01  0.6676E+05  0.1143E+06  0.9053E+00  0.2547E+05  0.2765E+05  0.2161E+00  0.3600E+06  0.7918E+05  0.5363E+00  0.7494E+03  0.1825E+03  0.1217E-02  0.1446E+05  0.6624E+04  0.4753E-01  0.6401E+04  0.2862E+04  0.2070E-01  0.4829E+02  0.4518E+04  0.1199E+01  0.0000E+00  0.0000E+00  0.0000E+00  0.0000E+00  0.0000E+00  0.0000E+00  0.0000E+00  0.0000E+00  0.0000E+00  0.0000E+00  0.0000E+00
RES          1    9  0.6660E+09  0.5057E+02  0.4894E+02  0.1856E+07  0.6098E+07  0.0000E+00  0.7152E+04  0.5074E+03  0.4000E+01  0.2123E+05  0.9442E+05  0.7413E+00  0.5759E+04  0.2280E+05  0.1789E+00  0.2706E+06  0.8213E+05  0.6283E+00  0.1913E+03  0.2004E+03  0.1571E-02  0.2214E+04  0.5979E+04  0.4691E-01  0.7945E+03  0.2554E+04  0.2004E-01  0.1670E+01  0.3916E+04  0.1289E+01  0.0000E+00  0.0000E+00  0.0000E+00  0.0000E+00  0.0000E+00  0.0000E+00  0.0000E+00  0.0000E+00  0.0000E+00  0.0000E+00  0.0000E+00
RES          1   10  0.6660E+09  0.1221E+03  0.1221E+03  0.3372E+07  0.3329E+07  0.0000E+00  0.3167E+05  0.1308E+04  0.4000E+01  0.5210E+06  0.3306E+06  0.9437E+00  0.1616E+06  0.8925E+05  0.2516E+00  0.5751E+06  0.3830E+06  0.1158E+01  0.6113E+03  0.5872E+03  0.1792E-02  0.2794E+05  0.1941E+05  0.5672E-01  0.1649E+05  0.9371E+04  0.2711E-01  0.5843E+04  0.1374E+05  0.1103E+01  0.0000E+00  0.0000E+00  0.0000E+00  0.0000E+00  0.0000E+00  0.0000E+00  0.0000E+00  0.0000E+00  0.0000E+00  0.0000E+00  0.0000E+00
RES          1   11  0.6660E+09  0.6386E+02  0.6301E+02  0.8270E+06  0.3022E+07  0.0000E+00  0.8743E+04  0.6533E+03  0.4000E+01  0.1189E+03  0.1341E+06  0.8175E+00  0.6425E+02  0.3608E+05  0.2198E+00  0.5008E+05  0.1676E+06  0.1023E+01  0.4367E+02  0.2299E+03  0.1402E-02  0.2341E+03  0.7929E+04  0.4833E-01  0.2790E+02  0.3871E+04  0.2358E-01  0.0000E+00  0.5877E+04  0.1232E+01  0.0000E+00  0.0000E+00  0.0000E+00  0.0000E+00  0.0000E+00  0.0000E+00  0.0000E+00  0.0000E+00  0.0000E+00  0.0000E+00  0.0000E+00
RES          1   12  0.6660E+09  0.7239E+02  0.7199E+02  0.1294E+07  0.2363E+07  0.0000E+00  0.1111E+05  0.7712E+03  0.4000E+01  0.4661E+05  0.1237E+06  0.6385E+00  0.1216E+05  0.3231E+05  0.1667E+00  0.1613E+05  0.1526E+06  0.7903E+00  0.5165E+03  0.2728E+03  0.1403E-02  0.7523E+04  0.7992E+04  0.4111E-01  0.2750E+04  0.3661E+04  0.1885E-01  0.4126E+02  0.5649E+04  0.1341E+01  0.0000E+00  0.0000E+00  0.0000E+00  0.0000E+00  0.0000E+00  0.0000E+00  0.0000E+00  0.0000E+00  0.0000E+00  0.0000E+00  0.0000E+00
RES          1 1991  0.6660E+09  0.1125E+03  0.1114E+03  0.2018E+08  0.5695E+08  0.0000E+00  0.3647E+06  0.1496E+05  0.4026E+01  0.8002E+07  0.1088E+08  0.1835E+01  0.2252E+07  0.2822E+07  0.4622E+00  0.1526E+07  0.1645E+07  0.5369E+00  0.6517E+04  0.8401E+04  0.1807E-02  0.3415E+06  0.5431E+06  0.1004E+00  0.1836E+06  0.2569E+06  0.4569E-01  0.1194E+06  0.3195E+06  0.1341E+01  0.0000E+00  0.0000E+00  0.0000E+00  0.0000E+00  0.0000E+00  0.0000E+00  0.0000E+00  0.0000E+00  0.0000E+00  0.0000E+00  0.0000E+00
RES          1    1  0.6660E+09  0.3230E+02  0.3141E+02  0.1590E+05  0.2405E+07  0.0000E+00  0.3337E+04  0.3365E+03  0.4000E+01  0.0000E+00  0.4469E+05  0.5236E+00  0.0000E+00  0.1135E+05  0.1326E+00  0.2425E+04  0.5320E+05  0.6236E+00  0.3597E+02  0.1236E+03  0.1453E-02  0.1850E+03  0.3131E+04  0.3671E-01  0.1825E+02  0.1358E+04  0.1588E-01  0.0000E+00  0.2099E+04  0.1437E+01  0.0000E+00  0.0000E+00  0.0000E+00  0.0000E+00  0.0000E+00  0.0000E+00  0.0000E+00  0.0000E+00  0.0000E+00  0.0000E+00  0.0000E+00
RES          1    2  0.6660E+09  0.5557E+02  0.5536E+02  0.1924E+07  0.2447E+07  0.0000E+00  0.1057E+05  0.5548E+03  0.4000E+01  0.1480E+07  0.2766E+06  0.1127E+01  0.3957E+06  0.7244E+05  0.2908E+00  0.7823E+04  0.7130E+05  0.5451E+00  0.1809E+04  0.3394E+03  0.1908E-02  0.9005E+05  0.1582E+05  0.6979E-01  0.6336E+05  0.1060E+05  0.4121E-01  0.6622E+04  0.9745E+04  0.8071E+00  0.0000E+00  0.0000E+00  0.0000E+00  0.0000E+00  0.0000E+00  0.0000E+00  0.0000E+00  0.0000E+00  0.0000E+00  0.0000E+00  0.0000E+00
RES          1    3  0.6660E+09  0.6339E+02  0.6239E+02  0.1214E+07  0.3894E+07  0.0000E+00  0.9661E+04  0.6684E+03  0.4000E+01  0.2566E+06  0.3361E+06  0.1989E+01  0.7055E+05  0.8662E+05  0.5123E+00  0.1024E+06  0.7270E+05  0.4260E+00  0.4407E+03  0.5284E+03  0.3133E-02  0.1805E+05  0.2135E+05  0.1263E+00  0.9253E+04  0.1337E+05  0.7921E-01  0.6907E+03  0.1187E+05  0.8393E+00  0.0000E+00  0.0000E+00  0.0000E+00  0.0000E+00  0.0000E+00  0.0000E+00  0.0000E+00  0.0000E+00  0.0000E+00  0.0000E+00  0.0000E+00
RES          1    4  0.6660E+09  0.2895E+03  0.2893E+03  0.4448E+07  0.4788E+07  0.0000E+00  0.1031E+06  0.3359E+04  0.4129E+01  0.6151E+07  0.4593E+07  0.5529E+01  0.1700E+07  0.1243E+07  0.1490E+01  0.1508E+07  0.8473E+06  0.1237E+01  0.1996E+04  0.2582E+04  0.3176E-02  0.2619E+06  0.2139E+06  0.2614E+00  0.1461E+06  0.1198E+06  0.1471E+00  0.1065E+06  0.1230E+06  0.6524E+00  0.0000E+00  0.0000E+00  0.0000E+00  0.0000E+00  0.0000E+00  0.0000E+00  0.0000E+00  0.0000E+00  0.0000E+00  0.0000E+00  0.0000E+00
RES          1    5  0.6660E+09  0.9698E+02  0.9504E+02  0.3764E+06  0.5574E+07  0.0000E+00  0.1708E+05  0.1018E+04  0.4000E+01  0.0000E+00  0.8714E+06  0.3334E+01  0.0000E+00  0.2292E+06  0.8753E+00  0.2425E+06  0.3452E+06  0.1344E+01  0.7051E+02  0.4831E+03  0.1856E-02  0.3066E+03  0.4076E+05  0.1560E+00  0.6431E+00  0.2245E+05  0.8575E-01  0.0000E+00  0.2646E+05  0.7659E+00  0.0000E+00  0.0000E+00  0.0000E+00  0.0000E+00  0.0000E+00  0.0000E+00  0.0000E+00  0.0000E+00  0.0000E+00  0.0000E+00  0.0000E+00
RES          1    6  0.6660E+09  0.6808E+02  0.6567E+02  0.0000E+00  0.6250E+07  0.0000E+00  0.1045E+05  0.6809E+03  0.4000E+01  0.2245E+04  0.4072E+06  0.2428E+01  0.7398E+03  0.1036E+06  0.6187E+00  0.2323E+06  0.2070E+06  0.1210E+01  0.8556E+02  0.2441E+03  0.1448E-02  0.5317E+03  0.1914E+05  0.1140E+00  0.2135E+03  0.1017E+05  0.6069E-01  0.2269E+00  0.1315E+05  0.8583E+00  0.0000E+00  0.0000E+00  0.0000E+00  0.0000E+00  0.0000E+00  0.0000E+00  0.0000E+00  0.0000E+00  0.0000E+00  0.0000E+00  0.0000E+00
RES          1    7  0.6660E+09  0.3069E+02  0.2755E+02  0.0000E+00  0.8406E+07  0.0000E+00  0.3798E+04  0.2951E+03  0.4000E+01  0.1477E-01  0.1431E+06  0.1889E+01  0.0000E+00  0.3558E+05  0.4674E+00  0.5755E+05  0.8866E+05  0.1184E+01  0.1025E+03  0.9351E+02  0.1264E-02  0.2465E+03  0.6752E+04  0.8924E-01  0.2591E+02  0.3499E+04  0.4597E-01  0.0000E+00  0.4778E+04  0.9149E+00  0.0000E+00  0.0000E+00  0.0000E+00  0.0000E+00  0.0000E+00  0.0000E+00  0.0000E+00  0.0000E+00  0.0000E+00  0.0000E+00  0.0000E+00
RES          1    8  0.6646E+09  0.3875E+01  0.1323E+01  0.0000E+00  0.8205E+07  0.0000E+00  0.1615E+03  0.1417E+02  0.4000E+01  0.0000E+00  0.6276E+04  0.1753E+01  0.0000E+00  0.1518E+04  0.4207E+00  0.3792E+05  0.4066E+04  0.1154E+01  0.5406E+02  0.4548E+01  0.1291E-02  0.1121E+03  0.2972E+03  0.8306E-01  0.2673E+02  0.1494E+03  0.4141E-01  0.0000E+00  0.2097E+03  0.9384E+00  0.0000E+00  0.0000E+00  0.0000E+00  0.0000E+00  0.0000E+00  0.0000E+00  0.0000E+00  0.0000E+00  0.0000E+00  0.0000E+00  0.0000E+00
RES          1    9  0.6614E+09  0.1016E+01  0.0000E+00  0.4577E+06  0.6314E+07  0.0000E+00  0.2693E+02  0.0000E+00  0.4000E+01  0.0000E+00  0.0000E+00  0.1697E+01  0.0000E+00  0.0000E+00  0.3952E+00  0.1357E+05  0.0000E+00  0.1143E+01  0.1589E+02  0.0000E+00  0.1295E-02  0.4053E+02  0.0000E+00  0.8049E-01  0.1041E+02  0.0000E+00  0.3893E-01  0.0000E+00  0.0000E+00  0.9589E+00  0.0000E+00  0.0000E+00  0.0000E+00  0.0000E+00  0.0000E+00  0.0000E+00  0.0000E+00  0.0000E+00  0.0000E+00  0.0000E+00  0.0000E+00
RES          1   10  0.6660E+09  0.6397E+02  0.6214E+02  0.3031E+07  0.3345E+07  0.0000E+00  0.1239E+05  0.6658E+03  0.4001E+01  0.1237E+06  0.2599E+06  0.1587E+01  0.3456E+05  0.5969E+05  0.3632E+00  0.2218E+06  0.1940E+06  0.1159E+01  0.4185E+03  0.2488E+03  0.1411E-02  0.1257E+05  0.1356E+05  0.7963E-01  0.6107E+04  0.6351E+04  0.3746E-01  0.3645E+03  0.8654E+04  0.1022E+01  0.0000E+00  0.0000E+00  0.0000E+00  0.0000E+00  0.0000E+00  0.0000E+00  0.0000E+00  0.0000E+00  0.0000E+00  0.0000E+00  0.0000E+00
RES          1   11  0.6660E+09  0.5445E+02  0.5337E+02  0.5355E+06  0.3341E+07  0.0000E+00  0.7292E+04  0.5533E+03  0.4000E+01  0.4041E+03  0.1711E+06  0.1217E+01  0.1301E+03  0.3859E+05  0.2740E+00  0.5424E+05  0.1452E+06  0.1038E+01  0.4907E+02  0.1857E+03  0.1325E-02  0.2675E+03  0.9133E+04  0.6500E-01  0.5708E+02  0.4201E+04  0.2983E-01  0.7952E-02  0.5951E+04  0.1126E+01  0.0000E+00  0.0000E+00  0.0000E+00  0.0000E+00  0.0000E+00  0.0000E+00  0.0000E+00  0.0000E+00  0.0000E+00  0.0000E+00  0.0000E+00
RES          1   12  0.6660E+09  0.8269E+02  0.8260E+02  0.1972E+07  0.2202E+07  0.0000E+00  0.1395E+05  0.8850E+03  0.4000E+01  0.2763E+05  0.2083E+06  0.9395E+00  0.9989E+04  0.4646E+05  0.2093E+00  0.2545E+05  0.1807E+06  0.8165E+00  0.1969E+03  0.2682E+03  0.1204E-02  0.3442E+04  0.1160E+05  0.5221E-01  0.1721E+04  0.5205E+04  0.2342E-01  0.1132E+02  0.7683E+04  0.1268E+01  0.0000E+00  0.0000E+00  0.0000E+00  0.0000E+00  0.0000E+00  0.0000E+00  0.0000E+00  0.0000E+00  0.0000E+00  0.0000E+00  0.0000E+00
RES          1 1992  0.6660E+09  0.6992E+02  0.6856E+02  0.1398E+08  0.5717E+08  0.0000E+00  0.1918E+06  0.9031E+04  0.4011E+01  0.8041E+07  0.7318E+07  0.1998E+01  0.2212E+07  0.1928E+07  0.5032E+00  0.2506E+07  0.2209E+07  0.9907E+00  0.5275E+04  0.5101E+04  0.1728E-02  0.3877E+06  0.3555E+06  0.1010E+00  0.2269E+06  0.1971E+06  0.5381E-01  0.1142E+06  0.2136E+06  0.1268E+01  0.0000E+00  0.0000E+00  0.0000E+00  0.0000E+00  0.0000E+00  0.0000E+00  0.0000E+00  0.0000E+00  0.0000E+00  0.0000E+00  0.0000E+00
RES          1    1  0.6660E+09  0.3753E+02  0.3672E+02  0.5036E+06  0.2673E+07  0.0000E+00  0.4169E+04  0.3934E+03  0.4000E+01  0.4006E+01  0.7088E+05  0.7104E+00  0.1040E+01  0.1544E+05  0.1544E+00  0.4273E+04  0.6274E+05  0.6293E+00  0.3415E+02  0.9839E+02  0.9902E-03  0.1841E+03  0.4003E+04  0.4015E-01  0.1533E+02  0.1743E+04  0.1744E-01  0.0000E+00  0.2741E+04  0.1369E+01  0.0000E+00  0.0000E+00  0.0000E+00  0.0000E+00  0.0000E+00  0.0000E+00  0.0000E+00  0.0000E+00  0.0000E+00  0.0000E+00  0.0000E+00
RES          1    2  0.6660E+09  0.1797E+02  0.1714E+02  0.6733E+06  0.2614E+07  0.0000E+00  0.1221E+04  0.1599E+03  0.4148E+01  0.4143E+03  0.2508E+05  0.6462E+00  0.1070E+03  0.5303E+04  0.1364E+00  0.6510E+04  0.2249E+05  0.5802E+00  0.3906E+02  0.3684E+02  0.9532E-03  0.1923E+03  0.1426E+04  0.3676E-01  0.2924E+02  0.5999E+03  0.1543E-01  0.0000E+00  0.9808E+03  0.1429E+01  0.0000E+00  0.0000E+00  0.0000E+00  0.0000E+00  0.0000E+00  0.0000E+00  0.0000E+00  0.0000E+00  0.0000E+00  0.0000E+00  0.0000E+00
RES          1    3  0.6660E+09  0.8962E+02  0.8881E+02  0.1940E+07  0.4111E+07  0.0000E+00  0.1577E+05  0.9515E+03  0.4000E+01  0.3326E+06  0.2080E+06  0.8556E+00  0.9120E+05  0.4863E+05  0.1995E+00  0.2379E+05  0.1103E+06  0.4604E+00  0.6362E+03  0.3339E+03  0.1382E-02  0.3277E+05  0.1554E+05  0.6374E-01  0.1464E+05  0.6626E+04  0.2713E-01  0.1146E+04  0.8226E+04  0.1254E+01  0.0000E+00  0.0000E+00  0.0000E+00  0.0000E+00  0.0000E+00  0.0000E+00  0.0000E+00  0.0000E+00  0.0000E+00  0.0000E+00  0.0000E+00
RES          1    4  0.6660E+09  0.9344E+02  0.9307E+02  0.2709E+07  0.3662E+07  0.0000E+00  0.1775E+05  0.9649E+03  0.4000E+01  0.7283E+06  0.2676E+06  0.9837E+00  0.2043E+06  0.6754E+05  0.2436E+00  0.6967E+06  0.1692E+06  0.5917E+00  0.1539E+04  0.4545E+03  0.1687E-02  0.6594E+05  0.2119E+05  0.7707E-01  0.2643E+05  0.8665E+04  0.3173E-01  0.4494E+04  0.1048E+05  0.9653E+00  0.0000E+00  0.0000E+00  0.0000E+00  0.0000E+00  0.0000E+00  0.0000E+00  0.0000E+00  0.0000E+00  0.0000E+00  0.0000E+00  0.0000E+00
RES          1    5  0.6660E+09  0.1644E+03  0.1632E+03  0.1781E+07  0.5053E+07  0.0000E+00  0.3957E+05  0.1748E+04  0.4000E+01  0.4427E+06  0.6240E+06  0.1365E+01  0.1226E+06  0.1630E+06  0.3556E+00  0.1187E+07  0.7329E+06  0.1712E+01  0.6787E+03  0.1166E+04  0.2569E-02  0.3112E+05  0.5085E+05  0.1114E+00  0.1337E+05  0.2052E+05  0.4491E-01  0.4207E+04  0.2368E+05  0.1064E+01  0.0000E+00  0.0000E+00  0.0000E+00  0.0000E+00  0.0000E+00  0.0000E+00  0.0000E+00  0.0000E+00  0.0000E+00  0.0000E+00  0.0000E+00
RES          1    6  0.6660E+09  0.5690E+02  0.5408E+02  0.0000E+00  0.7291E+07  0.0000E+00  0.7853E+04  0.5607E+03  0.4000E+01  0.0000E+00  0.1351E+06  0.9412E+00  0.0000E+00  0.3437E+05  0.2388E+00  0.9292E+05  0.2327E+06  0.1633E+01  0.8232E+02  0.2616E+03  0.1836E-02  0.2793E+03  0.1100E+05  0.7668E-01  0.2158E+00  0.4316E+04  0.2999E-01  0.0000E+00  0.5529E+04  0.1175E+01  0.0000E+00  0.0000E+00  0.0000E+00  0.0000E+00  0.0000E+00  0.0000E+00  0.0000E+00  0.0000E+00  0.0000E+00  0.0000E+00  0.0000E+00
RES          1    7  0.6644E+09  0.8814E+01  0.6001E+01  0.0000E+00  0.9126E+07  0.0000E+00  0.6687E+03  0.6429E+02  0.4000E+01  0.0000E+00  0.1341E+05  0.8185E+00  0.0000E+00  0.3335E+04  0.2015E+00  0.4755E+04  0.2394E+05  0.1463E+01  0.5729E+02  0.2750E+02  0.1709E-02  0.1367E+03  0.1097E+04  0.6700E-01  0.1587E+02  0.4188E+03  0.2532E-01  0.0000E+00  0.5587E+03  0.1213E+01  0.0000E+00  0.0000E+00  0.0000E+00  0.0000E+00  0.0000E+00  0.0000E+00  0.0000E+00  0.0000E+00  0.0000E+00  0.0000E+00  0.0000E+00
RES          1    8  0.6584E+09  0.7064E+00  0.0000E+00  0.0000E+00  0.7856E+07  0.0000E+00  0.1525E+02  0.0000E+00  0.4000E+01  0.0000E+00  0.0000E+00  0.7912E+00  0.0000E+00  0.0000E+00  0.1890E+00  0.7720E+04  0.0000E+00  0.1419E+01  0.1639E+02  0.0000E+00  0.1697E-02  0.4303E+02  0.0000E+00  0.6487E-01  0.7752E+01  0.0000E+00  0.2376E-01  0.0000E+00  0.0000E+00  0.1238E+01  0.0000E+00  0.0000E+00  0.0000E+00  0.0000E+00  0.0000E+00  0.0000E+00  0.0000E+00  0.0000E+00  0.0000E+00  0.0000E+00  0.0000E+00
RES          1    9  0.6660E+09  0.1066E+02  0.5871E+01  0.4809E+06  0.5347E+07  0.0000E+00  0.9834E+03  0.6087E+02  0.4003E+01  0.1802E+04  0.1128E+05  0.7623E+00  0.4043E+03  0.2589E+04  0.1767E+00  0.1324E+06  0.2251E+05  0.1425E+01  0.1061E+03  0.2644E+02  0.1698E-02  0.4794E+03  0.9322E+03  0.6270E-01  0.2706E+03  0.3304E+03  0.2235E-01  0.0000E+00  0.4556E+03  0.1281E+01  0.0000E+00  0.0000E+00  0.0000E+00  0.0000E+00  0.0000E+00  0.0000E+00  0.0000E+00  0.0000E+00  0.0000E+00  0.0000E+00  0.0000E+00
RES          1   10  0.6660E+09  0.6480E+02  0.6490E+02  0.3282E+07  0.3025E+07  0.0000E+00  0.1088E+05  0.6953E+03  0.4000E+01  0.3343E+06  0.1647E+06  0.8976E+00  0.8889E+05  0.3928E+05  0.2122E+00  0.1960E+06  0.2539E+06  0.1464E+01  0.4465E+03  0.3255E+03  0.1852E-02  0.1301E+05  0.1106E+05  0.6278E-01  0.1754E+05  0.5942E+04  0.3183E-01  0.1811E+04  0.6541E+04  0.1135E+01  0.0000E+00  0.0000E+00  0.0000E+00  0.0000E+00  0.0000E+00  0.0000E+00  0.0000E+00  0.0000E+00  0.0000E+00  0.0000E+00  0.0000E+00
RES          1   11  0.6660E+09  0.3444E+03  0.3463E+03  0.6722E+07  0.1849E+07  0.0000E+00  0.1280E+06  0.3829E+04  0.4111E+01  0.4531E+07  0.3455E+07  0.3522E+01  0.1234E+07  0.9188E+06  0.9341E+00  0.6475E+05  0.6877E+06  0.6833E+00  0.2323E+04  0.2363E+04  0.2465E-02  0.2521E+06  0.1952E+06  0.2006E+00  0.1343E+06  0.1044E+06  0.1079E+00  0.6321E+05  0.1033E+06  0.7932E+00  0.0000E+00  0.0000E+00  0.0000E+00  0.0000E+00  0.0000E+00  0.0000E+00  0.0000E+00  0.0000E+00  0.0000E+00  0.0000E+00  0.0000E+00
RES          1   12  0.6660E+09  0.1557E+03  0.1551E+03  0.6203E+06  0.2273E+07  0.0000E+00  0.3410E+05  0.1661E+04  0.4000E+01  0.6246E+05  0.7540E+06  0.1791E+01  0.1665E+05  0.1952E+06  0.4634E+00  0.2124E+05  0.1280E+06  0.3046E+00  0.1671E+03  0.5520E+03  0.1316E-02  0.4083E+04  0.4313E+05  0.1025E+00  0.2899E+04  0.2295E+05  0.5451E-01  0.8813E+02  0.2666E+05  0.9942E+00  0.0000E+00  0.0000E+00  0.0000E+00  0.0000E+00  0.0000E+00  0.0000E+00  0.0000E+00  0.0000E+00  0.0000E+00  0.0000E+00  0.0000E+00
RES          1 1993  0.6660E+09  0.8716E+02  0.8602E+02  0.1871E+08  0.5488E+08  0.0000E+00  0.2610E+06  0.1109E+05  0.4009E+01  0.6433E+07  0.5729E+07  0.1172E+01  0.1758E+07  0.1493E+07  0.2918E+00  0.2439E+07  0.2446E+07  0.1032E+01  0.6127E+04  0.5646E+04  0.1680E-02  0.4003E+06  0.3554E+06  0.8052E-01  0.2095E+06  0.1766E+06  0.3602E-01  0.7495E+05  0.1891E+06  0.9942E+00  0.0000E+00  0.0000E+00  0.0000E+00  0.0000E+00  0.0000E+00  0.0000E+00  0.0000E+00  0.0000E+00  0.0000E+00  0.0000E+00  0.0000E+00
RES          1    1  0.6660E+09  0.1809E+03  0.1843E+03  0.1066E+08  0.1478E+07  0.0000E+00  0.6638E+05  0.1975E+04  0.4000E+01  0.1789E+07  0.1195E+07  0.2290E+01  0.4977E+06  0.3195E+06  0.6100E+00  0.1652E+05  0.8470E+05  0.1683E+00  0.1184E+04  0.8696E+03  0.1678E-02  0.8445E+05  0.6304E+05  0.1209E+00  0.3482E+05  0.2842E+05  0.5493E-01  0.2569E+05  0.3954E+05  0.8377E+00  0.0000E+00  0.0000E+00  0.0000E+00  0.0000E+00  0.0000E+00  0.0000E+00  0.0000E+00  0.0000E+00  0.0000E+00  0.0000E+00  0.0000E+00
RES          1    2  0.6660E+09  0.2175E+03  0.2186E+03  0.4835E+07  0.2099E+07  0.0000E+00  0.7508E+05  0.2082E+04  0.4172E+01  0.2188E+07  0.1199E+07  0.2255E+01  0.6035E+06  0.3187E+06  0.5971E+00  0.1520E+05  0.4890E+05  0.1042E+00  0.1534E+04  0.9452E+03  0.1823E-02  0.1061E+06  0.6084E+05  0.1153E+00  0.4984E+05  0.2695E+05  0.5088E-01  0.2817E+05  0.3965E+05  0.6935E+00  0.0000E+00  0.0000E+00  0.0000E+00  0.0000E+00  0.0000E+00  0.0000E+00  0.0000E+00  0.0000E+00  0.0000E+00  0.0000E+00  0.0000E+00
RES          1    3  0.6660E+09  0.1795E+03  0.1779E+03  0.8270E+06  0.5255E+07  0.0000E+00  0.4298E+05  0.1910E+04  0.4004E+01  0.6706E+06  0.1509E+07  0.2995E+01  0.1811E+06  0.4028E+06  0.7976E+00  0.2028E+05  0.2673E+05  0.5438E-01  0.8809E+03  0.1150E+04  0.2347E-02  0.4492E+05  0.7761E+05  0.1549E+00  0.2467E+05  0.3731E+05  0.7442E-01  0.6316E+04  0.4692E+05  0.8313E+00  0.0000E+00  0.0000E+00  0.0000E+00  0.0000E+00  0.0000E+00  0.0000E+00  0.0000E+00  0.0000E+00  0.0000E+00  0.0000E+00  0.0000E+00
RES          1    4  0.6660E+09  0.1287E+03  0.1277E+03  0.1723E+07  0.4335E+07  0.0000E+00  0.2592E+05  0.1324E+04  0.4000E+01  0.4104E+06  0.6572E+06  0.1961E+01  0.1134E+06  0.1715E+06  0.5111E+00  0.4484E+06  0.8110E+05  0.2422E+00  0.4437E+03  0.5552E+03  0.1671E-02  0.2539E+05  0.3500E+05  0.1045E+00  0.9922E+04  0.1587E+05  0.4755E-01  0.5216E+04  0.2254E+05  0.9055E+00  0.0000E+00  0.0000E+00  0.0000E+00  0.0000E+00  0.0000E+00  0.0000E+00  0.0000E+00  0.0000E+00  0.0000E+00  0.0000E+00  0.0000E+00
RES          1    5  0.6660E+09  0.7596E+02  0.7434E+02  0.8270E+06  0.5152E+07  0.0000E+00  0.1196E+05  0.7965E+03  0.4000E+01  0.1636E+05  0.2958E+06  0.1477E+01  0.4806E+04  0.7566E+05  0.3777E+00  0.4340E+06  0.1565E+06  0.7932E+00  0.2113E+03  0.2896E+03  0.1452E-02  0.2342E+04  0.1641E+05  0.8196E-01  0.1350E+04  0.7113E+04  0.3551E-01  0.1642E+01  0.1072E+05  0.1024E+01  0.0000E+00  0.0000E+00  0.0000E+00  0.0000E+00  0.0000E+00  0.0000E+00  0.0000E+00  0.0000E+00  0.0000E+00  0.0000E+00  0.0000E+00
RES          1    6  0.6660E+09  0.2485E+02  0.2177E+02  0.0000E+00  0.7991E+07  0.0000E+00  0.2466E+04  0.2257E+03  0.4000E+01  0.0000E+00  0.6771E+05  0.1179E+01  0.0000E+00  0.1689E+05  0.2930E+00  0.7897E+05  0.5668E+05  0.1002E+01  0.8593E+02  0.7784E+02  0.1375E-02  0.2256E+03  0.3824E+04  0.6666E-01  0.2992E+02  0.1627E+04  0.2823E-01  0.0000E+00  0.2540E+04  0.1080E+01  0.0000E+00  0.0000E+00  0.0000E+00  0.0000E+00  0.0000E+00  0.0000E+00  0.0000E+00  0.0000E+00  0.0000E+00  0.0000E+00  0.0000E+00
RES          1    7  0.6600E+09  0.1471E+01  0.1221E+00  0.0000E+00  0.9604E+07  0.0000E+00  0.4858E+02  0.1309E+01  0.4000E+01  0.0000E+00  0.3675E+03  0.1108E+01  0.0000E+00  0.8984E+02  0.2672E+00  0.1413E+04  0.3224E+03  0.9735E+00  0.2688E+02  0.4493E+00  0.1379E-02  0.6167E+02  0.2082E+02  0.6285E-01  0.1332E+02  0.8663E+01  0.2577E-01  0.0000E+00  0.1379E+02  0.1103E+01  0.0000E+00  0.0000E+00  0.0000E+00  0.0000E+00  0.0000E+00  0.0000E+00  0.0000E+00  0.0000E+00  0.0000E+00  0.0000E+00  0.0000E+00
RES          1    8  0.6518E+09  0.0000E+00  0.0000E+00  0.0000E+00  0.8207E+07  0.0000E+00  0.0000E+00  0.0000E+00  0.4000E+01  0.0000E+00  0.0000E+00  0.1081E+01  0.0000E+00  0.0000E+00  0.2528E+00  0.0000E+00  0.0000E+00  0.9498E+00  0.0000E+00  0.0000E+00  0.1356E-02  0.0000E+00  0.0000E+00  0.6132E-01  0.0000E+00  0.0000E+00  0.2439E-01  0.0000E+00  0.0000E+00  0.1125E+01  0.0000E+00  0.0000E+00  0.0000E+00  0.0000E+00  0.0000E+00  0.0000E+00  0.0000E+00  0.0000E+00  0.0000E+00  0.0000E+00  0.0000E+00
RES          1    9  0.6566E+09  0.3707E+01  0.0000E+00  0.7742E+06  0.5581E+07  0.0000E+00  0.2501E+03  0.0000E+00  0.4002E+01  0.0000E+00  0.0000E+00  0.1052E+01  0.0000E+00  0.0000E+00  0.2387E+00  0.6766E+05  0.0000E+00  0.9371E+00  0.1564E+02  0.0000E+00  0.1322E-02  0.4809E+02  0.0000E+00  0.5967E-01  0.6471E+01  0.0000E+00  0.2304E-01  0.0000E+00  0.0000E+00  0.1155E+01  0.0000E+00  0.0000E+00  0.0000E+00  0.0000E+00  0.0000E+00  0.0000E+00  0.0000E+00  0.0000E+00  0.0000E+00  0.0000E+00  0.0000E+00
RES          1   10  0.6660E+09  0.5001E+02  0.4609E+02  0.3022E+07  0.4100E+07  0.0000E+00  0.7511E+04  0.4938E+03  0.4003E+01  0.1047E+06  0.1204E+06  0.9775E+00  0.2538E+05  0.2665E+05  0.2165E+00  0.2384E+06  0.1394E+06  0.1116E+01  0.1660E+04  0.2669E+03  0.1770E-02  0.2024E+05  0.8178E+04  0.6148E-01  0.8206E+04  0.3135E+04  0.2341E-01  0.1328E+02  0.4399E+04  0.1179E+01  0.0000E+00  0.0000E+00  0.0000E+00  0.0000E+00  0.0000E+00  0.0000E+00  0.0000E+00  0.0000E+00  0.0000E+00  0.0000E+00  0.0000E+00
RES          1   11  0.6660E+09  0.1691E+03  0.1687E+03  0.2561E+07  0.3572E+07  0.0000E+00  0.4893E+05  0.1836E+04  0.4044E+01  0.1564E+07  0.9474E+06  0.2059E+01  0.4146E+06  0.2361E+06  0.5113E+00  0.5058E+05  0.3571E+06  0.7654E+00  0.1810E+04  0.1801E+04  0.3902E-02  0.7541E+05  0.5367E+05  0.1182E+00  0.5398E+05  0.3019E+05  0.6738E-01  0.2279E+05  0.3134E+05  0.8996E+00  0.0000E+00  0.0000E+00  0.0000E+00  0.0000E+00  0.0000E+00  0.0000E+00  0.0000E+00  0.0000E+00  0.0000E+00  0.0000E+00  0.0000E+00
RES          1   12  0.6660E+09  0.5706E+02  0.5600E+02  0.1590E+05  0.2867E+07  0.0000E+00  0.7671E+04  0.5999E+03  0.4000E+01  0.0000E+00  0.2371E+06  0.1558E+01  0.0000E+00  0.5769E+05  0.3785E+00  0.6501E+04  0.8063E+05  0.5304E+00  0.3706E+02  0.4237E+03  0.2788E-02  0.2135E+03  0.1339E+05  0.8802E-01  0.2226E+01  0.7687E+04  0.5043E-01  0.0000E+00  0.8372E+04  0.9989E+00  0.0000E+00  0.0000E+00  0.0000E+00  0.0000E+00  0.0000E+00  0.0000E+00  0.0000E+00  0.0000E+00  0.0000E+00  0.0000E+00  0.0000E+00
RES          1 1994  0.6660E+09  0.8919E+02  0.8808E+02  0.2524E+08  0.6024E+08  0.0000E+00  0.2892E+06  0.1124E+05  0.4006E+01  0.6743E+07  0.6229E+07  0.1656E+01  0.1840E+07  0.1626E+07  0.4182E+00  0.1378E+07  0.1032E+07  0.6394E+00  0.7889E+04  0.6379E+04  0.1899E-02  0.3594E+06  0.3320E+06  0.9085E-01  0.1828E+06  0.1583E+06  0.4196E-01  0.8820E+05  0.2060E+06  0.9989E+00  0.0000E+00  0.0000E+00  0.0000E+00  0.0000E+00  0.0000E+00  0.0000E+00  0.0000E+00  0.0000E+00  0.0000E+00  0.0000E+00  0.0000E+00
RES          1    1  0.6660E+09  0.4952E+02  0.4904E+02  0.1251E+07  0.2551E+07  0.0000E+00  0.6251E+04  0.5254E+03  0.4000E+01  0.2456E+05  0.1636E+06  0.1244E+01  0.6757E+04  0.3863E+05  0.2936E+00  0.2171E+05  0.5757E+05  0.4381E+00  0.1148E+03  0.3001E+03  0.2283E-02  0.1886E+04  0.9290E+04  0.7064E-01  0.1267E+04  0.5170E+04  0.3929E-01  0.0000E+00  0.5983E+04  0.1084E+01  0.0000E+00  0.0000E+00  0.0000E+00  0.0000E+00  0.0000E+00  0.0000E+00  0.0000E+00  0.0000E+00  0.0000E+00  0.0000E+00  0.0000E+00
RES          1    2  0.6660E+09  0.4779E+02  0.4690E+02  0.6203E+06  0.2694E+07  0.0000E+00  0.5556E+04  0.4376E+03  0.4148E+01  0.1757E+06  0.1313E+06  0.1225E+01  0.5007E+05  0.3126E+05  0.2905E+00  0.1422E+05  0.4125E+05  0.3913E+00  0.4017E+03  0.2486E+03  0.2346E-02  0.1799E+05  0.8306E+04  0.7711E-01  0.6875E+04  0.4206E+04  0.3924E-01  0.6057E+03  0.4878E+04  0.1067E+01  0.0000E+00  0.0000E+00  0.0000E+00  0.0000E+00  0.0000E+00  0.0000E+00  0.0000E+00  0.0000E+00  0.0000E+00  0.0000E+00  0.0000E+00
RES          1    3  0.6660E+09  0.7224E+02  0.7104E+02  0.1601E+07  0.4802E+07  0.0000E+00  0.1223E+05  0.7611E+03  0.4000E+01  0.2603E+06  0.2384E+06  0.1214E+01  0.7043E+05  0.5752E+05  0.2916E+00  0.1463E+05  0.5915E+05  0.3133E+00  0.9391E+03  0.5344E+03  0.2710E-02  0.2605E+05  0.1738E+05  0.8752E-01  0.1090E+05  0.8010E+04  0.4059E-01  0.1086E+04  0.8880E+04  0.1066E+01  0.0000E+00  0.0000E+00  0.0000E+00  0.0000E+00  0.0000E+00  0.0000E+00  0.0000E+00  0.0000E+00  0.0000E+00  0.0000E+00  0.0000E+00
RES          1    4  0.6660E+09  0.6168E+02  0.6005E+02  0.1156E+07  0.5381E+07  0.0000E+00  0.8792E+04  0.6226E+03  0.4000E+01  0.3319E+00  0.1558E+06  0.1007E+01  0.6437E-01  0.3679E+05  0.2379E+00  0.3586E+06  0.6680E+05  0.4213E+00  0.5040E+02  0.3867E+03  0.2497E-02  0.2432E+03  0.1178E+05  0.7614E-01  0.1411E+02  0.5221E+04  0.3376E-01  0.0000E+00  0.6035E+04  0.1186E+01  0.0000E+00  0.0000E+00  0.0000E+00  0.0000E+00  0.0000E+00  0.0000E+00  0.0000E+00  0.0000E+00  0.0000E+00  0.0000E+00  0.0000E+00
RES          1    5  0.6660E+09  0.3435E+02  0.3204E+02  0.2704E+06  0.6450E+07  0.0000E+00  0.4293E+04  0.3433E+03  0.4000E+01  0.0000E+00  0.6958E+05  0.7892E+00  0.0000E+00  0.1604E+05  0.1810E+00  0.2639E+06  0.7320E+05  0.8901E+00  0.7794E+02  0.1785E+03  0.2043E-02  0.2443E+03  0.5287E+04  0.6003E-01  0.6490E+01  0.2277E+04  0.2570E-01  0.0000E+00  0.2785E+04  0.1272E+01  0.0000E+00  0.0000E+00  0.0000E+00  0.0000E+00  0.0000E+00  0.0000E+00  0.0000E+00  0.0000E+00  0.0000E+00  0.0000E+00  0.0000E+00
RES          1    6  0.6660E+09  0.1326E+02  0.1053E+02  0.0000E+00  0.7067E+07  0.0000E+00  0.1197E+04  0.1092E+03  0.4000E+01  0.2273E+04  0.1934E+05  0.7234E+00  0.4939E+03  0.4269E+04  0.1610E+00  0.1570E+05  0.2516E+05  0.9378E+00  0.2314E+03  0.5652E+02  0.2000E-02  0.7854E+03  0.1489E+04  0.5537E-01  0.3370E+03  0.6114E+03  0.2291E-01  0.0000E+00  0.7745E+03  0.1318E+01  0.0000E+00  0.0000E+00  0.0000E+00  0.0000E+00  0.0000E+00  0.0000E+00  0.0000E+00  0.0000E+00  0.0000E+00  0.0000E+00  0.0000E+00
RES          1    7  0.6653E+09  0.1619E+02  0.1318E+02  0.0000E+00  0.8782E+07  0.0000E+00  0.1418E+04  0.1413E+03  0.4000E+01  0.6750E+02  0.2354E+05  0.6523E+00  0.1270E+02  0.5123E+04  0.1409E+00  0.5614E+04  0.3085E+05  0.8568E+00  0.1034E+03  0.7578E+02  0.2138E-02  0.2349E+03  0.1831E+04  0.5081E-01  0.5914E+02  0.7420E+03  0.2043E-01  0.0000E+00  0.9474E+03  0.1376E+01  0.0000E+00  0.0000E+00  0.0000E+00  0.0000E+00  0.0000E+00  0.0000E+00  0.0000E+00  0.0000E+00  0.0000E+00  0.0000E+00  0.0000E+00
RES          1    8  0.6572E+09  0.1125E+00  0.0000E+00  0.0000E+00  0.8327E+07  0.0000E+00  0.2203E+01  0.0000E+00  0.4000E+01  0.0000E+00  0.0000E+00  0.6251E+00  0.0000E+00  0.0000E+00  0.1310E+00  0.5426E+02  0.0000E+00  0.8233E+00  0.3088E+01  0.0000E+00  0.2114E-02  0.8151E+01  0.0000E+00  0.4882E-01  0.2387E+01  0.0000E+00  0.1902E-01  0.0000E+00  0.0000E+00  0.1403E+01  0.0000E+00  0.0000E+00  0.0000E+00  0.0000E+00  0.0000E+00  0.0000E+00  0.0000E+00  0.0000E+00  0.0000E+00  0.0000E+00  0.0000E+00
RES          1    9  0.6583E+09  0.2172E+01  0.0000E+00  0.3930E+06  0.4973E+07  0.0000E+00  0.6341E+02  0.0000E+00  0.4001E+01  0.0000E+00  0.0000E+00  0.6046E+00  0.0000E+00  0.0000E+00  0.1230E+00  0.4017E+05  0.0000E+00  0.8388E+00  0.2782E+02  0.0000E+00  0.2072E-02  0.7517E+02  0.0000E+00  0.4730E-01  0.1427E+02  0.0000E+00  0.1787E-01  0.0000E+00  0.0000E+00  0.1437E+01  0.0000E+00  0.0000E+00  0.0000E+00  0.0000E+00  0.0000E+00  0.0000E+00  0.0000E+00  0.0000E+00  0.0000E+00  0.0000E+00  0.0000E+00
RES          1   10  0.6548E+09  0.6554E+00  0.0000E+00  0.1361E+06  0.5363E+07  0.0000E+00  0.1312E+02  0.0000E+00  0.4000E+01  0.0000E+00  0.0000E+00  0.5855E+00  0.2792E-05  0.0000E+00  0.1156E+00  0.1083E+05  0.0000E+00  0.8365E+00  0.1438E+02  0.0000E+00  0.2029E-02  0.3762E+02  0.0000E+00  0.4587E-01  0.1156E+02  0.0000E+00  0.1681E-01  0.0000E+00  0.0000E+00  0.1470E+01  0.0000E+00  0.0000E+00  0.0000E+00  0.0000E+00  0.0000E+00  0.0000E+00  0.0000E+00  0.0000E+00  0.0000E+00  0.0000E+00  0.0000E+00
RES          1   11  0.6660E+09  0.4821E+02  0.4361E+02  0.3055E+07  0.3776E+07  0.0000E+00  0.7708E+04  0.4522E+03  0.4002E+01  0.1148E+06  0.7415E+05  0.6255E+00  0.3122E+05  0.1548E+05  0.1274E+00  0.1763E+06  0.1005E+06  0.8688E+00  0.3066E+03  0.2372E+03  0.2066E-02  0.8751E+04  0.5743E+04  0.4865E-01  0.6068E+04  0.2451E+04  0.1969E-01  0.8322E+02  0.2928E+04  0.1404E+01  0.0000E+00  0.0000E+00  0.0000E+00  0.0000E+00  0.0000E+00  0.0000E+00  0.0000E+00  0.0000E+00  0.0000E+00  0.0000E+00  0.0000E+00
RES          1   12  0.6660E+09  0.2487E+03  0.2513E+03  0.8244E+07  0.1452E+07  0.0000E+00  0.1573E+06  0.5100E+04  0.4644E+01  0.5045E+07  0.1974E+07  0.1198E+01  0.1390E+07  0.5281E+06  0.2984E+00  0.5688E+05  0.3932E+06  0.7424E+00  0.1588E+04  0.1401E+04  0.1961E-02  0.2198E+06  0.9560E+05  0.7170E-01  0.1209E+06  0.4856E+05  0.3446E-01  0.1022E+06  0.5949E+05  0.6036E+00  0.0000E+00  0.0000E+00  0.0000E+00  0.0000E+00  0.0000E+00  0.0000E+00  0.0000E+00  0.0000E+00  0.0000E+00  0.0000E+00  0.0000E+00
RES          1 1995  0.6660E+09  0.4966E+02  0.4823E+02  0.1673E+08  0.6162E+08  0.0000E+00  0.2048E+06  0.8492E+04  0.4055E+01  0.5623E+07  0.2850E+07  0.8697E+00  0.1549E+07  0.7332E+06  0.1982E+00  0.9785E+06  0.8476E+06  0.6972E+00  0.3859E+04  0.3419E+04  0.2181E-02  0.2761E+06  0.1567E+06  0.6138E-01  0.1464E+06  0.7724E+05  0.2732E-01  0.1039E+06  0.9271E+05  0.6036E+00  0.0000E+00  0.0000E+00  0.0000E+00  0.0000E+00  0.0000E+00  0.0000E+00  0.0000E+00  0.0000E+00  0.0000E+00  0.0000E+00  0.0000E+00
RES          1    1  0.6660E+09  0.7278E+03  0.7342E+03  0.1849E+08  0.1369E+07  0.0000E+00  0.4408E+06  0.1451E+05  0.5648E+01  0.1407E+08  0.1371E+08  0.6301E+01  0.3809E+07  0.3686E+07  0.1693E+01  0.1837E+05  0.2411E+06  0.1500E+00  0.4433E+04  0.4681E+04  0.2380E-02  0.5473E+06  0.5480E+06  0.2597E+00  0.2829E+06  0.2858E+06  0.1384E+00  0.2586E+06  0.3508E+06  0.5958E+00  0.0000E+00  0.0000E+00  0.0000E+00  0.0000E+00  0.0000E+00  0.0000E+00  0.0000E+00  0.0000E+00  0.0000E+00  0.0000E+00  0.0000E+00
RES          1    2  0.6660E+09  0.5096E+03  0.5098E+03  0.2423E+07  0.1686E+07  0.0000E+00  0.1785E+06  0.5298E+04  0.4102E+01  0.7420E+05  0.3107E+07  0.2162E+01  0.2023E+05  0.8262E+06  0.5742E+00  0.1166E+05  0.2269E+05  0.1674E-01  0.7267E+02  0.1027E+04  0.7187E-03  0.3551E+04  0.1252E+06  0.8718E-01  0.1903E+04  0.6362E+05  0.4423E-01  0.4333E+03  0.9946E+05  0.1172E+01  0.0000E+00  0.0000E+00  0.0000E+00  0.0000E+00  0.0000E+00  0.0000E+00  0.0000E+00  0.0000E+00  0.0000E+00  0.0000E+00  0.0000E+00
RES          1    3  0.6660E+09  0.4031E+03  0.4032E+03  0.3997E+07  0.3577E+07  0.0000E+00  0.1426E+06  0.4425E+04  0.4053E+01  0.6197E+06  0.8182E+06  0.7301E+00  0.1682E+06  0.2155E+06  0.1921E+00  0.9058E+04  0.1141E+05  0.1053E-01  0.5406E+03  0.4588E+03  0.4153E-03  0.3209E+05  0.3703E+05  0.3313E-01  0.1686E+05  0.1883E+05  0.1682E-01  0.4417E+04  0.3537E+05  0.1380E+01  0.0000E+00  0.0000E+00  0.0000E+00  0.0000E+00  0.0000E+00  0.0000E+00  0.0000E+00  0.0000E+00  0.0000E+00  0.0000E+00  0.0000E+00
RES          1    4  0.6660E+09  0.2297E+03  0.2288E+03  0.2598E+07  0.4720E+07  0.0000E+00  0.5800E+05  0.2373E+04  0.4000E+01  0.1301E+05  0.2064E+06  0.3357E+00  0.7282E+04  0.5397E+05  0.8761E-01  0.2375E+06  0.5492E+05  0.9730E-01  0.5361E+02  0.1708E+03  0.2805E-03  0.1072E+04  0.1024E+05  0.1667E-01  0.1579E+04  0.5162E+04  0.8371E-02  0.2485E+03  0.1074E+05  0.1817E+01  0.0000E+00  0.0000E+00  0.0000E+00  0.0000E+00  0.0000E+00  0.0000E+00  0.0000E+00  0.0000E+00  0.0000E+00  0.0000E+00  0.0000E+00
RES          1    5  0.6660E+09  0.3279E+03  0.3283E+03  0.5694E+07  0.4667E+07  0.0000E+00  0.1049E+06  0.3517E+04  0.4000E+01  0.5533E+06  0.4817E+06  0.5078E+00  0.1678E+06  0.1416E+06  0.1493E+00  0.1815E+07  0.1005E+07  0.1196E+01  0.3682E+03  0.3217E+03  0.3521E-03  0.2744E+05  0.2366E+05  0.2521E-01  0.2500E+05  0.1993E+05  0.2110E-01  0.4673E+04  0.2525E+05  0.1571E+01  0.0000E+00  0.0000E+00  0.0000E+00  0.0000E+00  0.0000E+00  0.0000E+00  0.0000E+00  0.0000E+00  0.0000E+00  0.0000E+00  0.0000E+00
RES          1    6  0.6660E+09  0.1413E+03  0.1383E+03  0.0000E+00  0.7554E+07  0.0000E+00  0.2835E+05  0.1434E+04  0.4000E+01  0.0000E+00  0.8627E+05  0.2330E+00  0.0000E+00  0.2499E+05  0.6737E-01  0.1936E+06  0.4484E+06  0.1225E+01  0.9572E+02  0.9340E+02  0.2603E-03  0.3628E+03  0.4542E+04  0.1230E-01  0.0000E+00  0.3598E+04  0.9701E-02  0.0000E+00  0.5493E+04  0.1948E+01  0.0000E+00  0.0000E+00  0.0000E+00  0.0000E+00  0.0000E+00  0.0000E+00  0.0000E+00  0.0000E+00  0.0000E+00  0.0000E+00  0.0000E+00
RES          1    7  0.6660E+09  0.5559E+02  0.5243E+02  0.0000E+00  0.8453E+07  0.0000E+00  0.7707E+04  0.5618E+03  0.4000E+01  0.0000E+00  0.2239E+05  0.1554E+00  0.0000E+00  0.6303E+04  0.4361E-01  0.2208E+05  0.1298E+06  0.9041E+00  0.1210E+03  0.4228E+02  0.3129E-03  0.3237E+03  0.1239E+04  0.8648E-02  0.0000E+00  0.9076E+03  0.6280E-02  0.0000E+00  0.1543E+04  0.2152E+01  0.0000E+00  0.0000E+00  0.0000E+00  0.0000E+00  0.0000E+00  0.0000E+00  0.0000E+00  0.0000E+00  0.0000E+00  0.0000E+00  0.0000E+00
RES          1    8  0.6660E+09  0.8689E+01  0.5858E+01  0.0000E+00  0.7582E+07  0.0000E+00  0.5381E+03  0.6276E+02  0.4000E+01  0.0000E+00  0.2160E+04  0.1355E+00  0.0000E+00  0.5925E+03  0.3687E-01  0.2935E+04  0.1277E+05  0.8018E+00  0.7331E+02  0.6326E+01  0.4269E-03  0.1663E+03  0.1249E+03  0.7902E-02  0.8967E+01  0.8533E+02  0.5313E-02  0.0000E+00  0.1513E+03  0.2223E+01  0.0000E+00  0.0000E+00  0.0000E+00  0.0000E+00  0.0000E+00  0.0000E+00  0.0000E+00  0.0000E+00  0.0000E+00  0.0000E+00  0.0000E+00
RES          1    9  0.6660E+09  0.4667E+02  0.4551E+02  0.1564E+07  0.4562E+07  0.0000E+00  0.6489E+04  0.4719E+03  0.4000E+01  0.4222E+05  0.1980E+05  0.1569E+00  0.1066E+05  0.5146E+04  0.4097E-01  0.1286E+06  0.9526E+05  0.8031E+00  0.7197E+03  0.1345E+03  0.9836E-03  0.9414E+04  0.2087E+04  0.1503E-01  0.4756E+04  0.1164E+04  0.8564E-02  0.1032E+02  0.1337E+04  0.2047E+01  0.0000E+00  0.0000E+00  0.0000E+00  0.0000E+00  0.0000E+00  0.0000E+00  0.0000E+00  0.0000E+00  0.0000E+00  0.0000E+00  0.0000E+00
RES          1   10  0.6660E+09  0.1071E+03  0.1063E+03  0.2688E+07  0.4944E+07  0.0000E+00  0.2532E+05  0.1139E+04  0.4000E+01  0.1154E+06  0.6906E+05  0.2133E+00  0.3454E+05  0.1893E+05  0.5748E-01  0.6227E+05  0.1952E+06  0.7045E+00  0.2272E+03  0.3439E+03  0.1221E-02  0.8545E+04  0.6437E+04  0.2098E-01  0.7000E+04  0.4120E+04  0.1292E-01  0.9199E+03  0.4413E+04  0.1791E+01  0.0000E+00  0.0000E+00  0.0000E+00  0.0000E+00  0.0000E+00  0.0000E+00  0.0000E+00  0.0000E+00  0.0000E+00  0.0000E+00  0.0000E+00
RES          1   11  0.6660E+09  0.1309E+03  0.1305E+03  0.1909E+07  0.2977E+07  0.0000E+00  0.3077E+05  0.1364E+04  0.4007E+01  0.1341E+06  0.9773E+05  0.2685E+00  0.4583E+05  0.2920E+05  0.7905E-01  0.3871E+05  0.1578E+06  0.4727E+00  0.1523E+03  0.3192E+03  0.9462E-03  0.7865E+04  0.7600E+04  0.2162E-01  0.6605E+04  0.5323E+04  0.1494E-01  0.2299E+04  0.6248E+04  0.1639E+01  0.0000E+00  0.0000E+00  0.0000E+00  0.0000E+00  0.0000E+00  0.0000E+00  0.0000E+00  0.0000E+00  0.0000E+00  0.0000E+00  0.0000E+00
RES          1   12  0.6660E+09  0.6633E+03  0.6693E+03  0.1721E+08  0.1010E+07  0.0000E+00  0.3948E+06  0.1231E+05  0.5448E+01  0.4012E+07  0.3060E+07  0.1335E+01  0.1165E+07  0.8889E+06  0.3888E+00  0.3116E+05  0.2560E+06  0.1995E+00  0.1872E+04  0.1788E+04  0.1010E-02  0.1881E+06  0.1486E+06  0.6969E-01  0.1256E+06  0.9965E+05  0.4613E-01  0.5486E+05  0.1181E+06  0.8898E+00  0.0000E+00  0.0000E+00  0.0000E+00  0.0000E+00  0.0000E+00  0.0000E+00  0.0000E+00  0.0000E+00  0.0000E+00  0.0000E+00  0.0000E+00
RES          1 1996  0.6660E+09  0.2796E+03  0.2797E+03  0.5658E+08  0.5310E+08  0.0000E+00  0.1419E+07  0.4746E+05  0.4275E+01  0.1963E+08  0.2168E+08  0.1047E+01  0.5428E+07  0.5897E+07  0.2849E+00  0.2571E+07  0.2630E+07  0.5503E+00  0.8729E+04  0.9386E+04  0.7776E-03  0.8262E+06  0.9147E+06  0.4831E-01  0.4722E+06  0.5082E+06  0.2783E-01  0.3264E+06  0.6589E+06  0.8898E+00  0.0000E+00  0.0000E+00  0.0000E+00  0.0000E+00  0.0000E+00  0.0000E+00  0.0000E+00  0.0000E+00  0.0000E+00  0.0000E+00  0.0000E+00
RES          1    1  0.6660E+09  0.6318E+03  0.6335E+03  0.6526E+07  0.2031E+07  0.0000E+00  0.2697E+06  0.7612E+04  0.4351E+01  0.1797E+07  0.2493E+07  0.1361E+01  0.4924E+06  0.6884E+06  0.3751E+00  0.1590E+05  0.3416E+05  0.1890E-01  0.8447E+03  0.1197E+04  0.6667E-03  0.7634E+05  0.1097E+06  0.6000E-01  0.3815E+05  0.6140E+05  0.3342E-01  0.1927E+05  0.9453E+05  0.1352E+01  0.0000E+00  0.0000E+00  0.0000E+00  0.0000E+00  0.0000E+00  0.0000E+00  0.0000E+00  0.0000E+00  0.0000E+00  0.0000E+00  0.0000E+00
RES          1    2  0.6660E+09  0.3028E+03  0.3013E+03  0.0000E+00  0.3439E+07  0.0000E+00  0.7624E+05  0.2811E+04  0.4148E+01  0.0000E+00  0.2339E+06  0.3244E+00  0.0000E+00  0.6252E+05  0.8658E-01  0.3658E+04  0.6752E+04  0.9655E-02  0.2534E+02  0.1501E+03  0.2103E-03  0.2342E+03  0.1058E+05  0.1469E-01  0.0000E+00  0.5493E+04  0.7606E-02  0.0000E+00  0.1240E+05  0.2004E+01  0.0000E+00  0.0000E+00  0.0000E+00  0.0000E+00  0.0000E+00  0.0000E+00  0.0000E+00  0.0000E+00  0.0000E+00  0.0000E+00  0.0000E+00
RES          1    3  0.6660E+09  0.1399E+03  0.1377E+03  0.2068E+06  0.6138E+07  0.0000E+00  0.2881E+05  0.1475E+04  0.4000E+01  0.0000E+00  0.5255E+05  0.1372E+00  0.0000E+00  0.1365E+05  0.3557E-01  0.6481E+04  0.2305E+04  0.6284E-02  0.4814E+02  0.4862E+02  0.1316E-03  0.2793E+03  0.2480E+04  0.6501E-02  0.0000E+00  0.1199E+04  0.3125E-02  0.0000E+00  0.3361E+04  0.2499E+01  0.0000E+00  0.0000E+00  0.0000E+00  0.0000E+00  0.0000E+00  0.0000E+00  0.0000E+00  0.0000E+00  0.0000E+00  0.0000E+00  0.0000E+00
RES          1    4  0.6660E+09  0.1684E+03  0.1678E+03  0.3568E+07  0.5234E+07  0.0000E+00  0.5128E+05  0.1836E+04  0.4047E+01  0.1336E+07  0.4477E+06  0.6091E+00  0.3624E+06  0.1206E+06  0.1630E+00  0.5385E+06  0.1484E+06  0.2653E+00  0.1630E+04  0.4356E+03  0.6937E-03  0.9934E+05  0.3081E+05  0.4270E-01  0.3435E+05  0.1062E+05  0.1501E-01  0.2138E+05  0.1734E+05  0.9628E+00  0.0000E+00  0.0000E+00  0.0000E+00  0.0000E+00  0.0000E+00  0.0000E+00  0.0000E+00  0.0000E+00  0.0000E+00  0.0000E+00  0.0000E+00
RES          1    5  0.6660E+09  0.1234E+03  0.1222E+03  0.2030E+07  0.5367E+07  0.0000E+00  0.2407E+05  0.1309E+04  0.4000E+01  0.1736E+04  0.3587E+06  0.1080E+01  0.4512E+03  0.9476E+05  0.2850E+00  0.2168E+06  0.2030E+06  0.6193E+00  0.7230E+02  0.4967E+03  0.1498E-02  0.4225E+03  0.2703E+05  0.8137E-01  0.1027E+03  0.9261E+04  0.2786E-01  0.1320E+01  0.1435E+05  0.1174E+01  0.0000E+00  0.0000E+00  0.0000E+00  0.0000E+00  0.0000E+00  0.0000E+00  0.0000E+00  0.0000E+00  0.0000E+00  0.0000E+00  0.0000E+00
RES          1    6  0.6660E+09  0.5658E+02  0.5404E+02  0.0000E+00  0.6575E+07  0.0000E+00  0.7664E+04  0.5603E+03  0.4000E+01  0.0000E+00  0.1045E+06  0.7247E+00  0.0000E+00  0.2685E+05  0.1856E+00  0.2213E+05  0.7553E+05  0.5272E+00  0.7325E+02  0.1559E+03  0.1095E-02  0.2703E+03  0.7920E+04  0.5498E-01  0.4451E+01  0.2629E+04  0.1817E-01  0.0000E+00  0.4496E+04  0.1295E+01  0.0000E+00  0.0000E+00  0.0000E+00  0.0000E+00  0.0000E+00  0.0000E+00  0.0000E+00  0.0000E+00  0.0000E+00  0.0000E+00  0.0000E+00
RES          1    7  0.6648E+09  0.8530E+01  0.6080E+01  0.0000E+00  0.7786E+07  0.0000E+00  0.5282E+03  0.6514E+02  0.4000E+01  0.0000E+00  0.1050E+05  0.6338E+00  0.0000E+00  0.2631E+04  0.1575E+00  0.1348E+04  0.7794E+04  0.4712E+00  0.6165E+02  0.1712E+02  0.1062E-02  0.1535E+03  0.8004E+03  0.4840E-01  0.1055E+02  0.2576E+03  0.1543E-01  0.0000E+00  0.4592E+03  0.1338E+01  0.0000E+00  0.0000E+00  0.0000E+00  0.0000E+00  0.0000E+00  0.0000E+00  0.0000E+00  0.0000E+00  0.0000E+00  0.0000E+00  0.0000E+00
RES          1    8  0.6653E+09  0.3001E+01  0.0000E+00  0.0000E+00  0.7505E+07  0.0000E+00  0.1469E+03  0.0000E+00  0.4001E+01  0.4045E+01  0.0000E+00  0.6105E+00  0.8260E+00  0.0000E+00  0.1472E+00  0.1053E+05  0.0000E+00  0.4568E+00  0.3379E+02  0.0000E+00  0.1079E-02  0.8359E+02  0.0000E+00  0.4676E-01  0.1532E+02  0.0000E+00  0.1443E-01  0.0000E+00  0.0000E+00  0.1371E+01  0.0000E+00  0.0000E+00  0.0000E+00  0.0000E+00  0.0000E+00  0.0000E+00  0.0000E+00  0.0000E+00  0.0000E+00  0.0000E+00  0.0000E+00
RES          1    9  0.6660E+09  0.1165E+02  0.9675E+01  0.1341E+07  0.5777E+07  0.0000E+00  0.1005E+04  0.1003E+03  0.4000E+01  0.7465E+03  0.1424E+05  0.5814E+00  0.1810E+03  0.3303E+04  0.1360E+00  0.4618E+05  0.1205E+05  0.4678E+00  0.9821E+02  0.2851E+02  0.1117E-02  0.2986E+03  0.1099E+04  0.4473E-01  0.1365E+03  0.3267E+03  0.1339E-01  0.0000E+00  0.6060E+03  0.1421E+01  0.0000E+00  0.0000E+00  0.0000E+00  0.0000E+00  0.0000E+00  0.0000E+00  0.0000E+00  0.0000E+00  0.0000E+00  0.0000E+00  0.0000E+00
RES          1   10  0.6660E+09  0.1024E+03  0.1018E+03  0.2836E+07  0.4495E+07  0.0000E+00  0.2112E+05  0.1090E+04  0.4000E+01  0.1072E+06  0.1507E+06  0.5424E+00  0.2925E+05  0.3558E+05  0.1277E+00  0.7890E+05  0.1254E+06  0.4559E+00  0.3439E+03  0.3270E+03  0.1207E-02  0.1004E+05  0.1203E+05  0.4349E-01  0.6639E+04  0.4481E+04  0.1621E-01  0.9472E+03  0.6659E+04  0.1484E+01  0.0000E+00  0.0000E+00  0.0000E+00  0.0000E+00  0.0000E+00  0.0000E+00  0.0000E+00  0.0000E+00  0.0000E+00  0.0000E+00  0.0000E+00
RES          1   11  0.6660E+09  0.4353E+03  0.4381E+03  0.9044E+07  0.1671E+07  0.0000E+00  0.1901E+06  0.5850E+04  0.4395E+01  0.2226E+07  0.1274E+07  0.9821E+00  0.6097E+06  0.3376E+06  0.2581E+00  0.3038E+05  0.2342E+06  0.2230E+00  0.1260E+04  0.1215E+04  0.1084E-02  0.9795E+05  0.6767E+05  0.5606E-01  0.7331E+05  0.4236E+05  0.3396E-01  0.3458E+05  0.5088E+05  0.8651E+00  0.0000E+00  0.0000E+00  0.0000E+00  0.0000E+00  0.0000E+00  0.0000E+00  0.0000E+00  0.0000E+00  0.0000E+00  0.0000E+00  0.0000E+00
RES          1   12  0.6660E+09  0.4983E+03  0.5000E+03  0.6579E+07  0.1941E+07  0.0000E+00  0.2397E+06  0.7589E+04  0.4614E+01  0.1151E+07  0.1845E+07  0.1330E+01  0.3142E+06  0.4958E+06  0.3571E+00  0.1544E+05  0.6135E+05  0.4537E-01  0.6107E+03  0.1068E+04  0.7991E-03  0.5102E+05  0.8101E+05  0.5912E-01  0.3040E+05  0.5339E+05  0.3892E-01  0.1907E+05  0.7100E+05  0.1198E+01  0.0000E+00  0.0000E+00  0.0000E+00  0.0000E+00  0.0000E+00  0.0000E+00  0.0000E+00  0.0000E+00  0.0000E+00  0.0000E+00  0.0000E+00
RES          1 1997  0.6660E+09  0.2056E+03  0.2048E+03  0.3213E+08  0.5796E+08  0.0000E+00  0.9103E+06  0.3030E+05  0.4118E+01  0.6620E+07  0.6985E+07  0.7458E+00  0.1809E+07  0.1882E+07  0.1936E+00  0.9862E+06  0.9110E+06  0.2988E+00  0.5102E+04  0.5140E+04  0.8907E-03  0.3364E+06  0.3511E+06  0.4676E-01  0.1831E+06  0.1914E+06  0.1987E-01  0.9524E+05  0.2761E+06  0.1198E+01  0.0000E+00  0.0000E+00  0.0000E+00  0.0000E+00  0.0000E+00  0.0000E+00  0.0000E+00  0.0000E+00  0.0000E+00  0.0000E+00  0.0000E+00
RES          1    1  0.6660E+09  0.2835E+03  0.2835E+03  0.1787E+07  0.1954E+07  0.0000E+00  0.8592E+05  0.3051E+04  0.4008E+01  0.8116E+06  0.4852E+06  0.5970E+00  0.2173E+06  0.1278E+06  0.1570E+00  0.1141E+05  0.1439E+05  0.1881E-01  0.1448E+04  0.4947E+03  0.6012E-03  0.5803E+05  0.2679E+05  0.3278E-01  0.2458E+05  0.1450E+05  0.1798E-01  0.1034E+05  0.2206E+05  0.1010E+01  0.0000E+00  0.0000E+00  0.0000E+00  0.0000E+00  0.0000E+00  0.0000E+00  0.0000E+00  0.0000E+00  0.0000E+00  0.0000E+00  0.0000E+00
RES          1    2  0.6660E+09  0.5103E+03  0.5118E+03  0.6298E+07  0.2826E+07  0.0000E+00  0.2556E+06  0.7502E+04  0.5035E+01  0.5453E+07  0.4725E+07  0.3672E+01  0.1469E+07  0.1262E+07  0.9778E+00  0.8452E+04  0.1407E+05  0.1141E-01  0.2040E+04  0.2461E+04  0.1929E-02  0.2685E+06  0.2430E+06  0.1889E+00  0.1340E+06  0.1168E+06  0.9263E-01  0.9823E+05  0.1389E+06  0.8259E+00  0.0000E+00  0.0000E+00  0.0000E+00  0.0000E+00  0.0000E+00  0.0000E+00  0.0000E+00  0.0000E+00  0.0000E+00  0.0000E+00  0.0000E+00
RES          1    3  0.6660E+09  0.1616E+03  0.1599E+03  0.7369E+06  0.5104E+07  0.0000E+00  0.3559E+05  0.1713E+04  0.4000E+01  0.3804E+03  0.6842E+06  0.1540E+01  0.9474E+02  0.1776E+06  0.3990E+00  0.7469E+05  0.5858E+04  0.1456E-01  0.5170E+02  0.3679E+03  0.8316E-03  0.3275E+03  0.3482E+05  0.7838E-01  0.2132E+02  0.1720E+05  0.3865E-01  0.0000E+00  0.2462E+05  0.1063E+01  0.0000E+00  0.0000E+00  0.0000E+00  0.0000E+00  0.0000E+00  0.0000E+00  0.0000E+00  0.0000E+00  0.0000E+00  0.0000E+00  0.0000E+00
RES          1    4  0.6660E+09  0.1174E+03  0.1158E+03  0.3817E+06  0.4593E+07  0.0000E+00  0.2190E+05  0.1201E+04  0.4000E+01  0.1938E+05  0.2707E+06  0.8937E+00  0.8467E+04  0.6872E+05  0.2269E+00  0.6932E+06  0.1592E+06  0.5473E+00  0.9356E+02  0.1707E+03  0.5670E-03  0.1834E+04  0.1398E+05  0.4619E-01  0.1780E+04  0.6824E+04  0.2258E-01  0.5968E+02  0.1103E+05  0.1249E+01  0.0000E+00  0.0000E+00  0.0000E+00  0.0000E+00  0.0000E+00  0.0000E+00  0.0000E+00  0.0000E+00  0.0000E+00  0.0000E+00  0.0000E+00
RES          1    5  0.6660E+09  0.1110E+03  0.1100E+03  0.1924E+07  0.4594E+07  0.0000E+00  0.2187E+05  0.1178E+04  0.4000E+01  0.2075E+05  0.1707E+06  0.5840E+00  0.5846E+04  0.4286E+05  0.1467E+00  0.3736E+06  0.2958E+06  0.1002E+01  0.4544E+03  0.1793E+03  0.5985E-03  0.3335E+04  0.9272E+04  0.3164E-01  0.1467E+04  0.4548E+04  0.1553E-01  0.2025E+02  0.7706E+04  0.1460E+01  0.0000E+00  0.0000E+00  0.0000E+00  0.0000E+00  0.0000E+00  0.0000E+00  0.0000E+00  0.0000E+00  0.0000E+00  0.0000E+00  0.0000E+00
RES          1    6  0.6660E+09  0.6023E+02  0.5723E+02  0.0000E+00  0.7759E+07  0.0000E+00  0.9261E+04  0.5934E+03  0.4000E+01  0.7572E+01  0.6204E+05  0.4069E+00  0.1789E+01  0.1520E+05  0.9936E-01  0.3919E+05  0.1321E+06  0.8721E+00  0.9338E+02  0.1253E+03  0.8378E-03  0.2882E+03  0.3660E+04  0.2405E-01  0.2296E+02  0.1712E+04  0.1119E-01  0.0000E+00  0.2988E+04  0.1618E+01  0.0000E+00  0.0000E+00  0.0000E+00  0.0000E+00  0.0000E+00  0.0000E+00  0.0000E+00  0.0000E+00  0.0000E+00  0.0000E+00  0.0000E+00
RES          1    7  0.6649E+09  0.9561E+01  0.6766E+01  0.0000E+00  0.8554E+07  0.0000E+00  0.7040E+03  0.7249E+02  0.4000E+01  0.0000E+00  0.6499E+04  0.3525E+00  0.0000E+00  0.1553E+04  0.8352E-01  0.2231E+04  0.1425E+05  0.7737E+00  0.7198E+02  0.1525E+02  0.8597E-03  0.1566E+03  0.3891E+03  0.2117E-01  0.2384E+02  0.1754E+03  0.9442E-02  0.0000E+00  0.3189E+03  0.1673E+01  0.0000E+00  0.0000E+00  0.0000E+00  0.0000E+00  0.0000E+00  0.0000E+00  0.0000E+00  0.0000E+00  0.0000E+00  0.0000E+00  0.0000E+00
RES          1    8  0.6567E+09  0.1000E+00  0.0000E+00  0.0000E+00  0.8539E+07  0.0000E+00  0.1898E+01  0.0000E+00  0.4000E+01  0.0000E+00  0.0000E+00  0.3405E+00  0.0000E+00  0.0000E+00  0.7826E-01  0.2167E+02  0.0000E+00  0.7481E+00  0.3754E+01  0.0000E+00  0.8787E-03  0.1063E+02  0.0000E+00  0.2055E-01  0.2140E+01  0.0000E+00  0.8866E-02  0.0000E+00  0.0000E+00  0.1706E+01  0.0000E+00  0.0000E+00  0.0000E+00  0.0000E+00  0.0000E+00  0.0000E+00  0.0000E+00  0.0000E+00  0.0000E+00  0.0000E+00  0.0000E+00
RES          1    9  0.6660E+09  0.2597E+02  0.1995E+02  0.0000E+00  0.6271E+07  0.0000E+00  0.3682E+04  0.2069E+03  0.4004E+01  0.6395E+04  0.1639E+05  0.3271E+00  0.2048E+04  0.3666E+04  0.7326E-01  0.5978E+05  0.3816E+05  0.7351E+00  0.1255E+03  0.4846E+02  0.8924E-03  0.1188E+04  0.1039E+04  0.2009E-01  0.9135E+03  0.4592E+03  0.8600E-02  0.4568E+01  0.7946E+03  0.1770E+01  0.0000E+00  0.0000E+00  0.0000E+00  0.0000E+00  0.0000E+00  0.0000E+00  0.0000E+00  0.0000E+00  0.0000E+00  0.0000E+00  0.0000E+00
RES          1   10  0.6660E+09  0.2989E+02  0.2830E+02  0.2227E+06  0.4484E+07  0.0000E+00  0.3242E+04  0.3032E+03  0.4000E+01  0.1895E+03  0.2151E+05  0.2795E+00  0.7191E+02  0.4737E+04  0.6136E-01  0.3790E+05  0.5426E+05  0.7102E+00  0.7301E+02  0.6955E+02  0.9151E-03  0.2520E+03  0.1389E+04  0.1809E-01  0.6682E+02  0.6056E+03  0.7852E-02  0.0000E+00  0.1060E+04  0.1886E+01  0.0000E+00  0.0000E+00  0.0000E+00  0.0000E+00  0.0000E+00  0.0000E+00  0.0000E+00  0.0000E+00  0.0000E+00  0.0000E+00  0.0000E+00
RES          1   11  0.6660E+09  0.1009E+02  0.8537E+01  0.0000E+00  0.4028E+07  0.0000E+00  0.5936E+03  0.8851E+02  0.4000E+01  0.0000E+00  0.5627E+04  0.2529E+00  0.0000E+00  0.1202E+04  0.5389E-01  0.2071E+04  0.1470E+05  0.6611E+00  0.4489E+02  0.2026E+02  0.9162E-03  0.1418E+03  0.3697E+03  0.1663E-01  0.1970E+02  0.1547E+03  0.6940E-02  0.0000E+00  0.2783E+03  0.1954E+01  0.0000E+00  0.0000E+00  0.0000E+00  0.0000E+00  0.0000E+00  0.0000E+00  0.0000E+00  0.0000E+00  0.0000E+00  0.0000E+00  0.0000E+00
RES          1   12  0.6660E+09  0.6720E+02  0.6779E+02  0.3854E+07  0.2269E+07  0.0000E+00  0.1662E+05  0.7263E+03  0.4000E+01  0.2677E+06  0.7071E+05  0.3611E+00  0.8366E+05  0.1759E+05  0.8678E-01  0.6186E+05  0.1088E+06  0.6072E+00  0.2690E+03  0.1801E+03  0.9978E-03  0.1673E+05  0.4760E+04  0.2490E-01  0.1369E+05  0.2861E+04  0.1472E-01  0.1746E+04  0.3610E+04  0.1338E+01  0.0000E+00  0.0000E+00  0.0000E+00  0.0000E+00  0.0000E+00  0.0000E+00  0.0000E+00  0.0000E+00  0.0000E+00  0.0000E+00  0.0000E+00
RES          1 1998  0.6660E+09  0.1116E+03  0.1102E+03  0.1520E+08  0.6097E+08  0.0000E+00  0.4550E+06  0.1664E+05  0.4067E+01  0.6579E+07  0.6519E+07  0.7705E+00  0.1787E+07  0.1723E+07  0.1956E+00  0.1364E+07  0.8516E+06  0.5613E+00  0.4770E+04  0.4133E+04  0.8894E-03  0.3508E+06  0.3395E+06  0.4209E-01  0.1766E+06  0.1658E+06  0.2051E-01  0.1104E+06  0.2133E+06  0.1338E+01  0.0000E+00  0.0000E+00  0.0000E+00  0.0000E+00  0.0000E+00  0.0000E+00  0.0000E+00  0.0000E+00  0.0000E+00  0.0000E+00  0.0000E+00
RES          1    1  0.6660E+09  0.1470E+03  0.1472E+03  0.2661E+07  0.2138E+07  0.0000E+00  0.3524E+05  0.1577E+04  0.4000E+01  0.8017E+06  0.3513E+06  0.7803E+00  0.2271E+06  0.9742E+05  0.2158E+00  0.2221E+05  0.1652E+06  0.4327E+00  0.7183E+03  0.4631E+03  0.1146E-02  0.4390E+05  0.2038E+05  0.4696E-01  0.2333E+05  0.1243E+05  0.2959E-01  0.1085E+05  0.1548E+05  0.1013E+01  0.0000E+00  0.0000E+00  0.0000E+00  0.0000E+00  0.0000E+00  0.0000E+00  0.0000E+00  0.0000E+00  0.0000E+00  0.0000E+00  0.0000E+00
RES          1    2  0.6660E+09  0.1214E+03  0.1211E+03  0.1659E+07  0.2232E+07  0.0000E+00  0.2134E+05  0.1130E+04  0.4148E+01  0.2452E+06  0.2852E+06  0.1032E+01  0.6870E+05  0.7800E+05  0.2821E+00  0.9006E+04  0.7311E+05  0.2711E+00  0.4865E+03  0.3451E+03  0.1244E-02  0.2106E+05  0.1670E+05  0.5997E-01  0.8874E+04  0.8762E+04  0.3170E-01  0.1599E+04  0.1208E+05  0.1048E+01  0.0000E+00  0.0000E+00  0.0000E+00  0.0000E+00  0.0000E+00  0.0000E+00  0.0000E+00  0.0000E+00  0.0000E+00  0.0000E+00  0.0000E+00
RES          1    3  0.6660E+09  0.1119E+03  0.1107E+03  0.9384E+06  0.4160E+07  0.0000E+00  0.2084E+05  0.1185E+04  0.4000E+01  0.2279E+05  0.2562E+06  0.8517E+00  0.6410E+04  0.6881E+05  0.2286E+00  0.1167E+05  0.5230E+05  0.1743E+00  0.2277E+03  0.4161E+03  0.1388E-02  0.2284E+04  0.1720E+05  0.5720E-01  0.1230E+04  0.8217E+04  0.2730E-01  0.1617E+02  0.1116E+05  0.1236E+01  0.0000E+00  0.0000E+00  0.0000E+00  0.0000E+00  0.0000E+00  0.0000E+00  0.0000E+00  0.0000E+00  0.0000E+00  0.0000E+00  0.0000E+00
RES          1    4  0.6660E+09  0.5459E+02  0.5264E+02  0.2545E+06  0.5306E+07  0.0000E+00  0.7237E+04  0.5458E+03  0.4000E+01  0.8290E+02  0.8481E+05  0.6084E+00  0.2114E+02  0.2220E+05  0.1589E+00  0.2498E+05  0.1817E+05  0.1318E+00  0.5794E+02  0.1497E+03  0.1081E-02  0.2590E+03  0.5712E+04  0.4101E-01  0.2257E+02  0.2671E+04  0.1911E-01  0.0000E+00  0.3927E+04  0.1362E+01  0.0000E+00  0.0000E+00  0.0000E+00  0.0000E+00  0.0000E+00  0.0000E+00  0.0000E+00  0.0000E+00  0.0000E+00  0.0000E+00  0.0000E+00
RES          1    5  0.6660E+09  0.2335E+02  0.2111E+02  0.3287E+06  0.6326E+07  0.0000E+00  0.2286E+04  0.2262E+03  0.4000E+01  0.1586E+03  0.2946E+05  0.5096E+00  0.4342E+02  0.7506E+04  0.1292E+00  0.4585E+06  0.2756E+05  0.5990E+00  0.6824E+02  0.5606E+02  0.9890E-03  0.2249E+03  0.2001E+04  0.3468E-01  0.2470E+02  0.9038E+03  0.1556E-01  0.0000E+00  0.1395E+04  0.1438E+01  0.0000E+00  0.0000E+00  0.0000E+00  0.0000E+00  0.0000E+00  0.0000E+00  0.0000E+00  0.0000E+00  0.0000E+00  0.0000E+00  0.0000E+00
RES          1    6  0.6610E+09  0.1216E+01  0.1254E+00  0.0000E+00  0.7828E+07  0.0000E+00  0.3547E+02  0.1300E+01  0.4000E+01  0.0000E+00  0.1578E+03  0.4799E+00  0.0000E+00  0.3927E+02  0.1180E+00  0.1244E+05  0.2534E+03  0.7790E+00  0.1769E+02  0.3250E+00  0.1001E-02  0.4678E+02  0.1079E+02  0.3284E-01  0.8515E+01  0.4735E+01  0.1424E-01  0.0000E+00  0.7465E+01  0.1468E+01  0.0000E+00  0.0000E+00  0.0000E+00  0.0000E+00  0.0000E+00  0.0000E+00  0.0000E+00  0.0000E+00  0.0000E+00  0.0000E+00  0.0000E+00
RES          1    7  0.6528E+09  0.0000E+00  0.0000E+00  0.0000E+00  0.8161E+07  0.0000E+00  0.0000E+00  0.0000E+00  0.4000E+01  0.0000E+00  0.0000E+00  0.4682E+00  0.0000E+00  0.0000E+00  0.1117E+00  0.0000E+00  0.0000E+00  0.7627E+00  0.0000E+00  0.0000E+00  0.9821E-03  0.0000E+00  0.0000E+00  0.3205E-01  0.0000E+00  0.0000E+00  0.1348E-01  0.0000E+00  0.0000E+00  0.1497E+01  0.0000E+00  0.0000E+00  0.0000E+00  0.0000E+00  0.0000E+00  0.0000E+00  0.0000E+00  0.0000E+00  0.0000E+00  0.0000E+00  0.0000E+00
RES          1    8  0.6449E+09  0.0000E+00  0.0000E+00  0.0000E+00  0.7894E+07  0.0000E+00  0.0000E+00  0.0000E+00  0.4000E+01  0.0000E+00  0.0000E+00  0.4566E+00  0.0000E+00  0.0000E+00  0.1057E+00  0.0000E+00  0.0000E+00  0.7438E+00  0.0000E+00  0.0000E+00  0.9579E-03  0.0000E+00  0.0000E+00  0.3126E-01  0.0000E+00  0.0000E+00  0.1276E-01  0.0000E+00  0.0000E+00  0.1528E+01  0.0000E+00  0.0000E+00  0.0000E+00  0.0000E+00  0.0000E+00  0.0000E+00  0.0000E+00  0.0000E+00  0.0000E+00  0.0000E+00  0.0000E+00
RES          1    9  0.6464E+09  0.2732E+01  0.0000E+00  0.1281E+06  0.5794E+07  0.0000E+00  0.1326E+03  0.0000E+00  0.4001E+01  0.0000E+00  0.0000E+00  0.4439E+00  0.0000E+00  0.0000E+00  0.9975E-01  0.5283E+05  0.0000E+00  0.7417E+00  0.1473E+02  0.0000E+00  0.9355E-03  0.4596E+02  0.0000E+00  0.3040E-01  0.5732E+01  0.0000E+00  0.1204E-01  0.0000E+00  0.0000E+00  0.1565E+01  0.0000E+00  0.0000E+00  0.0000E+00  0.0000E+00  0.0000E+00  0.0000E+00  0.0000E+00  0.0000E+00  0.0000E+00  0.0000E+00  0.0000E+00
RES          1   10  0.6660E+09  0.5176E+02  0.4486E+02  0.4944E+07  0.3784E+07  0.0000E+00  0.1786E+05  0.4806E+03  0.4005E+01  0.2114E+06  0.7242E+05  0.4974E+00  0.5270E+05  0.1656E+05  0.1115E+00  0.2846E+06  0.1188E+06  0.9092E+00  0.2597E+03  0.1221E+03  0.9753E-03  0.1000E+05  0.4267E+04  0.3183E-01  0.9423E+04  0.2374E+04  0.1477E-01  0.5537E+03  0.3094E+04  0.1355E+01  0.0000E+00  0.0000E+00  0.0000E+00  0.0000E+00  0.0000E+00  0.0000E+00  0.0000E+00  0.0000E+00  0.0000E+00  0.0000E+00  0.0000E+00
RES          1   11  0.6660E+09  0.9329E+02  0.9345E+02  0.3154E+07  0.2754E+07  0.0000E+00  0.3638E+05  0.9689E+03  0.4000E+01  0.4930E+06  0.2073E+06  0.7455E+00  0.1297E+06  0.4990E+05  0.1765E+00  0.7257E+05  0.2100E+06  0.8953E+00  0.5249E+03  0.2905E+03  0.1146E-02  0.3014E+05  0.1216E+05  0.4437E-01  0.1353E+05  0.6273E+04  0.2348E-01  0.5206E+04  0.8299E+04  0.1112E+01  0.0000E+00  0.0000E+00  0.0000E+00  0.0000E+00  0.0000E+00  0.0000E+00  0.0000E+00  0.0000E+00  0.0000E+00  0.0000E+00  0.0000E+00
RES          1   12  0.6660E+09  0.9951E+02  0.9994E+02  0.3239E+07  0.2081E+07  0.0000E+00  0.1738E+05  0.1071E+04  0.4000E+01  0.1003E+06  0.2383E+06  0.8887E+00  0.2741E+05  0.5811E+05  0.2167E+00  0.1989E+05  0.1638E+06  0.6132E+00  0.1936E+03  0.3385E+03  0.1263E-02  0.6899E+04  0.1468E+05  0.5475E-01  0.3429E+04  0.7080E+04  0.2642E-01  0.4171E+03  0.9603E+04  0.1230E+01  0.0000E+00  0.0000E+00  0.0000E+00  0.0000E+00  0.0000E+00  0.0000E+00  0.0000E+00  0.0000E+00  0.0000E+00  0.0000E+00  0.0000E+00
RES          1 1999  0.6660E+09  0.5827E+02  0.5696E+02  0.1731E+08  0.5846E+08  0.0000E+00  0.1587E+06  0.7186E+04  0.4001E+01  0.1875E+07  0.1525E+07  0.6417E+00  0.5120E+06  0.3985E+06  0.1614E+00  0.9687E+06  0.8292E+06  0.5891E+00  0.2569E+04  0.2182E+04  0.1088E-02  0.1149E+06  0.9311E+05  0.4117E-01  0.5988E+05  0.4871E+05  0.1989E-01  0.1864E+05  0.6504E+05  0.1230E+01  0.0000E+00  0.0000E+00  0.0000E+00  0.0000E+00  0.0000E+00  0.0000E+00  0.0000E+00  0.0000E+00  0.0000E+00  0.0000E+00  0.0000E+00
RES          1    1  0.6660E+09  0.1003E+03  0.1001E+03  0.2089E+07  0.2522E+07  0.0000E+00  0.3211E+05  0.1073E+04  0.4000E+01  0.3845E+06  0.2488E+06  0.8976E+00  0.9997E+05  0.6105E+05  0.2197E+00  0.1272E+05  0.1110E+06  0.4158E+00  0.3877E+03  0.3125E+03  0.1159E-02  0.1970E+05  0.1435E+05  0.5243E-01  0.9615E+04  0.6811E+04  0.2487E-01  0.2384E+04  0.9878E+04  0.1145E+01  0.0000E+00  0.0000E+00  0.0000E+00  0.0000E+00  0.0000E+00  0.0000E+00  0.0000E+00  0.0000E+00  0.0000E+00  0.0000E+00  0.0000E+00
RES          1    2  0.6660E+09  0.4988E+02  0.4836E+02  0.0000E+00  0.3807E+07  0.0000E+00  0.5771E+04  0.4847E+03  0.4000E+01  0.0000E+00  0.1028E+06  0.8355E+00  0.0000E+00  0.2488E+05  0.2018E+00  0.2158E+04  0.3730E+05  0.3032E+00  0.4596E+02  0.1332E+03  0.1087E-02  0.2102E+03  0.5911E+04  0.4805E-01  0.1831E+02  0.2744E+04  0.2226E-01  0.0000E+00  0.4134E+04  0.1250E+01  0.0000E+00  0.0000E+00  0.0000E+00  0.0000E+00  0.0000E+00  0.0000E+00  0.0000E+00  0.0000E+00  0.0000E+00  0.0000E+00  0.0000E+00
RES          1    3  0.6660E+09  0.1528E+02  0.1329E+02  0.5832E+05  0.5396E+07  0.0000E+00  0.1123E+04  0.1424E+03  0.4000E+01  0.0000E+00  0.2602E+05  0.7208E+00  0.0000E+00  0.6129E+04  0.1690E+00  0.3517E+03  0.9484E+04  0.2628E+00  0.4595E+02  0.3598E+02  0.1008E-02  0.1643E+03  0.1505E+04  0.4173E-01  0.1526E+02  0.6769E+03  0.1867E-01  0.0000E+00  0.1063E+04  0.1306E+01  0.0000E+00  0.0000E+00  0.0000E+00  0.0000E+00  0.0000E+00  0.0000E+00  0.0000E+00  0.0000E+00  0.0000E+00  0.0000E+00  0.0000E+00
RES          1    4  0.6660E+09  0.1869E+03  0.1897E+03  0.1031E+08  0.3106E+07  0.0000E+00  0.7400E+05  0.2032E+04  0.4033E+01  0.3331E+07  0.1809E+07  0.3485E+01  0.8909E+06  0.4705E+06  0.9032E+00  0.1300E+07  0.4589E+06  0.1019E+01  0.2317E+04  0.1207E+04  0.2653E-02  0.1818E+06  0.9594E+05  0.1916E+00  0.7457E+05  0.3883E+05  0.7806E-01  0.6751E+05  0.5289E+05  0.7616E+00  0.0000E+00  0.0000E+00  0.0000E+00  0.0000E+00  0.0000E+00  0.0000E+00  0.0000E+00  0.0000E+00  0.0000E+00  0.0000E+00  0.0000E+00
RES          1    5  0.6660E+09  0.1439E+03  0.1437E+03  0.4194E+07  0.4833E+07  0.0000E+00  0.3094E+05  0.1539E+04  0.4000E+01  0.6865E+05  0.8243E+06  0.2149E+01  0.1901E+05  0.2089E+06  0.5447E+00  0.3092E+06  0.5222E+06  0.1362E+01  0.3813E+03  0.7874E+03  0.2044E-02  0.7301E+04  0.4737E+05  0.1234E+00  0.2836E+04  0.1904E+05  0.4962E-01  0.2924E+03  0.2707E+05  0.9365E+00  0.0000E+00  0.0000E+00  0.0000E+00  0.0000E+00  0.0000E+00  0.0000E+00  0.0000E+00  0.0000E+00  0.0000E+00  0.0000E+00  0.0000E+00
RES          1    6  0.6660E+09  0.8022E+02  0.7703E+02  0.0000E+00  0.8261E+07  0.0000E+00  0.1248E+05  0.7987E+03  0.4000E+01  0.3615E+01  0.2777E+06  0.1352E+01  0.7462E+00  0.6878E+05  0.3341E+00  0.2623E+05  0.1922E+06  0.9388E+00  0.1032E+03  0.3315E+03  0.1627E-02  0.3318E+03  0.1658E+05  0.8076E-01  0.2182E+02  0.6469E+04  0.3142E-01  0.0000E+00  0.9976E+04  0.1067E+01  0.0000E+00  0.0000E+00  0.0000E+00  0.0000E+00  0.0000E+00  0.0000E+00  0.0000E+00  0.0000E+00  0.0000E+00  0.0000E+00  0.0000E+00
RES          1    7  0.6655E+09  0.2057E+02  0.1759E+02  0.0000E+00  0.8471E+07  0.0000E+00  0.1889E+04  0.1884E+03  0.4000E+01  0.0000E+00  0.5274E+05  0.1097E+01  0.0000E+00  0.1272E+05  0.2630E+00  0.2682E+04  0.3724E+05  0.7755E+00  0.9077E+02  0.6912E+02  0.1465E-02  0.2170E+03  0.3166E+04  0.6592E-01  0.1581E+02  0.1197E+04  0.2476E-01  0.0000E+00  0.1957E+04  0.1121E+01  0.0000E+00  0.0000E+00  0.0000E+00  0.0000E+00  0.0000E+00  0.0000E+00  0.0000E+00  0.0000E+00  0.0000E+00  0.0000E+00  0.0000E+00
RES          1    8  0.6588E+09  0.6474E+00  0.0000E+00  0.0000E+00  0.8451E+07  0.0000E+00  0.1553E+02  0.0000E+00  0.4000E+01  0.0000E+00  0.0000E+00  0.1041E+01  0.0000E+00  0.0000E+00  0.2421E+00  0.6601E+03  0.0000E+00  0.7377E+00  0.1472E+02  0.0000E+00  0.1464E-02  0.3521E+02  0.0000E+00  0.6272E-01  0.9457E+01  0.0000E+00  0.2281E-01  0.0000E+00  0.0000E+00  0.1144E+01  0.0000E+00  0.0000E+00  0.0000E+00  0.0000E+00  0.0000E+00  0.0000E+00  0.0000E+00  0.0000E+00  0.0000E+00  0.0000E+00  0.0000E+00
RES          1    9  0.6660E+09  0.8483E+01  0.4269E+01  0.2014E+07  0.5730E+07  0.0000E+00  0.7700E+03  0.4426E+02  0.4002E+01  0.3876E+04  0.1080E+05  0.1009E+01  0.1029E+04  0.2406E+04  0.2277E+00  0.4460E+05  0.8255E+04  0.7275E+00  0.5788E+02  0.1586E+02  0.1433E-02  0.5905E+03  0.6547E+03  0.6085E-01  0.5564E+03  0.2322E+03  0.2151E-01  0.1152E-01  0.3908E+03  0.1179E+01  0.0000E+00  0.0000E+00  0.0000E+00  0.0000E+00  0.0000E+00  0.0000E+00  0.0000E+00  0.0000E+00  0.0000E+00  0.0000E+00  0.0000E+00
RES          1   10  0.6660E+09  0.9200E+02  0.9182E+02  0.3669E+07  0.4150E+07  0.0000E+00  0.1990E+05  0.9837E+03  0.4000E+01  0.8535E+06  0.3462E+06  0.1169E+01  0.2244E+06  0.8231E+05  0.2702E+00  0.1075E+06  0.1741E+06  0.7329E+00  0.2570E+04  0.6932E+03  0.2195E-02  0.9679E+05  0.2883E+05  0.8787E-01  0.4370E+05  0.1159E+05  0.3422E-01  0.5211E+04  0.1228E+05  0.9160E+00  0.0000E+00  0.0000E+00  0.0000E+00  0.0000E+00  0.0000E+00  0.0000E+00  0.0000E+00  0.0000E+00  0.0000E+00  0.0000E+00  0.0000E+00
RES          1   11  0.6660E+09  0.1152E+03  0.1158E+03  0.4093E+07  0.2548E+07  0.0000E+00  0.2189E+05  0.1200E+04  0.4000E+01  0.4772E+05  0.4049E+06  0.1367E+01  0.1668E+05  0.9788E+05  0.3303E+00  0.3073E+05  0.1537E+06  0.5196E+00  0.1417E+03  0.1008E+04  0.3407E-02  0.3383E+04  0.3768E+05  0.1274E+00  0.3054E+04  0.1597E+05  0.5389E-01  0.1715E+03  0.1506E+05  0.1068E+01  0.0000E+00  0.0000E+00  0.0000E+00  0.0000E+00  0.0000E+00  0.0000E+00  0.0000E+00  0.0000E+00  0.0000E+00  0.0000E+00  0.0000E+00
RES          1   12  0.6660E+09  0.3932E+03  0.3977E+03  0.1367E+08  0.1482E+07  0.0000E+00  0.3170E+06  0.1103E+05  0.5430E+01  0.5651E+07  0.3450E+07  0.1805E+01  0.1567E+07  0.9367E+06  0.4724E+00  0.1683E+05  0.2224E+06  0.2962E+00  0.8767E+03  0.1799E+04  0.2069E-02  0.1876E+06  0.1470E+06  0.1051E+00  0.1347E+06  0.8845E+05  0.5471E-01  0.1173E+06  0.1053E+06  0.6407E+00  0.0000E+00  0.0000E+00  0.0000E+00  0.0000E+00  0.0000E+00  0.0000E+00  0.0000E+00  0.0000E+00  0.0000E+00  0.0000E+00  0.0000E+00
RES          1 2000  0.6660E+09  0.1009E+03  0.1003E+03  0.4010E+08  0.5876E+08  0.0000E+00  0.5178E+06  0.1951E+05  0.4124E+01  0.1034E+08  0.7553E+07  0.1410E+01  0.2819E+07  0.1972E+07  0.3479E+00  0.1854E+07  0.1927E+07  0.6749E+00  0.7033E+04  0.6393E+04  0.1799E-02  0.4981E+06  0.3990E+06  0.8722E-01  0.2691E+06  0.1920E+06  0.3637E-01  0.1928E+06  0.2400E+06  0.6407E+00  0.0000E+00  0.0000E+00  0.0000E+00  0.0000E+00  0.0000E+00  0.0000E+00  0.0000E+00  0.0000E+00  0.0000E+00  0.0000E+00  0.0000E+00
RES          1    1  0.6660E+09  0.6050E+03  0.6078E+03  0.8816E+07  0.1255E+07  0.0000E+00  0.2963E+06  0.1074E+05  0.4932E+01  0.4904E+07  0.5879E+07  0.3481E+01  0.1282E+07  0.1555E+07  0.9239E+00  0.1350E+05  0.6768E+05  0.4739E-01  0.2425E+04  0.2272E+04  0.1347E-02  0.2325E+06  0.2464E+06  0.1444E+00  0.9795E+05  0.1282E+06  0.7868E-01  0.9940E+05  0.1750E+06  0.7718E+00  0.0000E+00  0.0000E+00  0.0000E+00  0.0000E+00  0.0000E+00  0.0000E+00  0.0000E+00  0.0000E+00  0.0000E+00  0.0000E+00  0.0000E+00
RES          1    2  0.6660E+09  0.3379E+03  0.3384E+03  0.3600E+07  0.2381E+07  0.0000E+00  0.9756E+05  0.3180E+04  0.4163E+01  0.3526E+06  0.1281E+07  0.1634E+01  0.9304E+05  0.3281E+06  0.4182E+00  0.8126E+04  0.1084E+05  0.1419E-01  0.2641E+03  0.7421E+03  0.9527E-03  0.2080E+05  0.6237E+05  0.7954E-01  0.1009E+05  0.2763E+05  0.3517E-01  0.3163E+04  0.4485E+05  0.1010E+01  0.0000E+00  0.0000E+00  0.0000E+00  0.0000E+00  0.0000E+00  0.0000E+00  0.0000E+00  0.0000E+00  0.0000E+00  0.0000E+00  0.0000E+00
RES          1    3  0.6660E+09  0.2729E+03  0.2730E+03  0.4755E+07  0.4722E+07  0.0000E+00  0.9312E+05  0.2925E+04  0.4000E+01  0.1518E+06  0.6610E+06  0.8341E+00  0.3968E+05  0.1680E+06  0.2116E+00  0.1658E+05  0.8898E+04  0.1243E-01  0.3300E+03  0.5100E+03  0.6566E-03  0.1164E+05  0.3662E+05  0.4631E-01  0.5808E+04  0.1684E+05  0.2125E-01  0.9870E+03  0.2677E+05  0.1427E+01  0.0000E+00  0.0000E+00  0.0000E+00  0.0000E+00  0.0000E+00  0.0000E+00  0.0000E+00  0.0000E+00  0.0000E+00  0.0000E+00  0.0000E+00
RES          1    4  0.6660E+09  0.1225E+03  0.1204E+03  0.1113E+06  0.5505E+07  0.0000E+00  0.2298E+05  0.1249E+04  0.4000E+01  0.4283E-01  0.1239E+06  0.3833E+00  0.0000E+00  0.3056E+05  0.9435E-01  0.3156E+05  0.1068E+05  0.3591E-01  0.4464E+02  0.1142E+03  0.3580E-03  0.2596E+03  0.6984E+04  0.2164E-01  0.0000E+00  0.3085E+04  0.9525E-02  0.0000E+00  0.6017E+04  0.1726E+01  0.0000E+00  0.0000E+00  0.0000E+00  0.0000E+00  0.0000E+00  0.0000E+00  0.0000E+00  0.0000E+00  0.0000E+00  0.0000E+00  0.0000E+00
RES          1    5  0.6660E+09  0.7687E+02  0.7636E+02  0.4178E+07  0.5557E+07  0.0000E+00  0.1265E+05  0.8181E+03  0.4000E+01  0.3660E+04  0.5376E+05  0.2589E+00  0.1831E+04  0.1309E+05  0.6294E-01  0.4947E+06  0.8545E+05  0.4480E+00  0.6392E+02  0.6104E+02  0.2980E-03  0.3240E+03  0.3069E+04  0.1479E-01  0.3712E+03  0.1365E+04  0.6570E-02  0.1438E+02  0.2863E+04  0.1943E+01  0.0000E+00  0.0000E+00  0.0000E+00  0.0000E+00  0.0000E+00  0.0000E+00  0.0000E+00  0.0000E+00  0.0000E+00  0.0000E+00  0.0000E+00
RES          1    6  0.6660E+09  0.2428E+02  0.2115E+02  0.0000E+00  0.8099E+07  0.0000E+00  0.2173E+04  0.2193E+03  0.4000E+01  0.0000E+00  0.1158E+05  0.2067E+00  0.0000E+00  0.2751E+04  0.4885E-01  0.5636E+05  0.3631E+05  0.6620E+00  0.7683E+02  0.1855E+02  0.3521E-03  0.2116E+03  0.6751E+03  0.1211E-01  0.1408E+02  0.2882E+03  0.5121E-02  0.0000E+00  0.6387E+03  0.2048E+01  0.0000E+00  0.0000E+00  0.0000E+00  0.0000E+00  0.0000E+00  0.0000E+00  0.0000E+00  0.0000E+00  0.0000E+00  0.0000E+00  0.0000E+00
RES          1    7  0.6617E+09  0.1970E+01  0.3139E+00  0.0000E+00  0.8779E+07  0.0000E+00  0.5775E+02  0.3363E+01  0.4000E+01  0.0000E+00  0.1654E+03  0.1946E+00  0.6691E-04  0.3830E+02  0.4463E-01  0.2625E+04  0.5499E+03  0.6484E+00  0.2587E+02  0.3320E+00  0.4047E-03  0.7292E+02  0.9826E+01  0.1160E-01  0.1225E+02  0.4031E+01  0.4703E-02  0.0000E+00  0.9106E+01  0.2094E+01  0.0000E+00  0.0000E+00  0.0000E+00  0.0000E+00  0.0000E+00  0.0000E+00  0.0000E+00  0.0000E+00  0.0000E+00  0.0000E+00  0.0000E+00
RES          1    8  0.6535E+09  0.2094E-01  0.0000E+00  0.0000E+00  0.8224E+07  0.0000E+00  0.3300E+00  0.0000E+00  0.4000E+01  0.5256E-06  0.0000E+00  0.1896E+00  0.3833E-05  0.0000E+00  0.4218E-01  0.1652E+02  0.0000E+00  0.6327E+00  0.9363E+00  0.0000E+00  0.4082E-03  0.3089E+01  0.0000E+00  0.1135E-01  0.4910E+00  0.0000E+00  0.4452E-02  0.0000E+00  0.0000E+00  0.2136E+01  0.0000E+00  0.0000E+00  0.0000E+00  0.0000E+00  0.0000E+00  0.0000E+00  0.0000E+00  0.0000E+00  0.0000E+00  0.0000E+00  0.0000E+00
RES          1    9  0.6660E+09  0.1133E+02  0.4771E+01  0.1264E+07  0.5751E+07  0.0000E+00  0.1312E+04  0.4950E+02  0.4007E+01  0.1462E+05  0.2439E+04  0.1884E+00  0.4311E+04  0.5415E+03  0.4110E-01  0.8492E+05  0.8487E+04  0.6328E+00  0.7152E+02  0.5736E+01  0.4114E-03  0.1279E+04  0.1526E+03  0.1137E-01  0.1722E+04  0.7938E+02  0.4739E-02  0.3210E+01  0.1337E+03  0.2067E+01  0.0000E+00  0.0000E+00  0.0000E+00  0.0000E+00  0.0000E+00  0.0000E+00  0.0000E+00  0.0000E+00  0.0000E+00  0.0000E+00  0.0000E+00
RES          1   10  0.6660E+09  0.1464E+02  0.1290E+02  0.5142E+06  0.5173E+07  0.0000E+00  0.1003E+04  0.1382E+03  0.4000E+01  0.4861E+01  0.6474E+04  0.1858E+00  0.9077E+00  0.1417E+04  0.4055E-01  0.8587E+05  0.2597E+05  0.7560E+00  0.7835E+02  0.1759E+02  0.5161E-03  0.2048E+03  0.4117E+03  0.1185E-01  0.4196E+02  0.2108E+03  0.6040E-02  0.0000E+00  0.3557E+03  0.2156E+01  0.0000E+00  0.0000E+00  0.0000E+00  0.0000E+00  0.0000E+00  0.0000E+00  0.0000E+00  0.0000E+00  0.0000E+00  0.0000E+00  0.0000E+00
RES          1   11  0.6660E+09  0.9985E+01  0.9002E+01  0.5567E+06  0.3105E+07  0.0000E+00  0.5766E+03  0.9333E+02  0.4000E+01  0.7606E+01  0.4022E+04  0.1726E+00  0.3658E+01  0.8514E+03  0.3655E-01  0.1978E+05  0.1763E+05  0.7558E+00  0.4642E+02  0.1334E+02  0.5709E-03  0.1480E+03  0.2622E+03  0.1125E-01  0.2735E+02  0.1279E+03  0.5491E-02  0.0000E+00  0.2201E+03  0.2234E+01  0.0000E+00  0.0000E+00  0.0000E+00  0.0000E+00  0.0000E+00  0.0000E+00  0.0000E+00  0.0000E+00  0.0000E+00  0.0000E+00  0.0000E+00
[...]
RES          1    9  0.6656E+09  0.3072E+01  0.3852E+00  0.2651E+05  0.6052E+07  0.0000E+00  0.1002E+03  0.3994E+01  0.4000E+01  0.0000E+00  0.1233E+03  0.1227E+00  0.0000E+00  0.2961E+02  0.2932E-01  0.7738E+04  0.1880E+03  0.1886E+00  0.4587E+02  0.5151E+00  0.5231E-03  0.1035E+03  0.7808E+01  0.7795E-02  0.2833E+02  0.3634E+01  0.3606E-02  0.0000E+00  0.7898E+01  0.2424E+01  0.0000E+00  0.0000E+00  0.0000E+00  0.0000E+00  0.0000E+00  0.0000E+00  0.0000E+00  0.0000E+00  0.0000E+00  0.0000E+00  0.0000E+00
RES          1   10  0.6660E+09  0.1926E+02  0.1781E+02  0.1550E+07  0.5043E+07  0.0000E+00  0.3342E+04  0.1908E+03  0.4001E+01  0.2620E+05  0.6593E+04  0.1225E+00  0.7882E+04  0.1607E+04  0.2877E-01  0.3844E+05  0.1015E+05  0.1921E+00  0.2603E+03  0.3324E+02  0.5719E-03  0.4576E+04  0.5460E+03  0.8351E-02  0.2871E+04  0.2780E+03  0.3874E-02  0.6595E+01  0.4294E+03  0.2178E+01  0.0000E+00  0.0000E+00  0.0000E+00  0.0000E+00  0.0000E+00  0.0000E+00  0.0000E+00  0.0000E+00  0.0000E+00  0.0000E+00  0.0000E+00
RES          1   11  0.6660E+09  0.2760E+03  0.2773E+03  0.5869E+07  0.2529E+07  0.0000E+00  0.9896E+05  0.3440E+04  0.4201E+01  0.6765E+06  0.4591E+06  0.5860E+00  0.2036E+06  0.1336E+06  0.1700E+00  0.5426E+05  0.1196E+06  0.1587E+00  0.6086E+03  0.6716E+03  0.9374E-03  0.4403E+05  0.3097E+05  0.4067E-01  0.2635E+05  0.1797E+05  0.2359E-01  0.1188E+05  0.2294E+05  0.1396E+01  0.0000E+00  0.0000E+00  0.0000E+00  0.0000E+00  0.0000E+00  0.0000E+00  0.0000E+00  0.0000E+00  0.0000E+00  0.0000E+00  0.0000E+00
RES          1   12  0.6660E+09  0.1103E+03  0.1095E+03  0.4082E+06  0.2526E+07  0.0000E+00  0.2051E+05  0.1173E+04  0.4000E+01  0.0000E+00  0.1047E+06  0.3462E+00  0.0000E+00  0.2980E+05  0.9830E-01  0.7821E+04  0.2963E+05  0.9866E-01  0.3239E+02  0.1757E+03  0.5841E-03  0.2274E+03  0.7385E+04  0.2443E-01  0.1884E+01  0.4172E+04  0.1376E-01  0.0000E+00  0.5972E+04  0.1673E+01  0.0000E+00  0.0000E+00  0.0000E+00  0.0000E+00  0.0000E+00  0.0000E+00  0.0000E+00  0.0000E+00  0.0000E+00  0.0000E+00  0.0000E+00
RES          1 2011  0.6660E+09  0.1428E+03  0.1418E+03  0.2560E+08  0.5633E+08  0.0000E+00  0.5135E+06  0.1971E+05  0.4050E+01  0.3341E+07  0.3656E+07  0.4724E+00  0.8777E+06  0.9245E+06  0.1193E+00  0.5809E+06  0.5021E+06  0.1450E+00  0.2697E+04  0.2458E+04  0.5054E-03  0.1725E+06  0.1758E+06  0.2433E-01  0.8653E+05  0.8673E+05  0.1209E-01  0.5751E+05  0.1461E+06  0.1673E+01  0.0000E+00  0.0000E+00  0.0000E+00  0.0000E+00  0.0000E+00  0.0000E+00  0.0000E+00  0.0000E+00  0.0000E+00  0.0000E+00  0.0000E+00
RES          1    1  0.6660E+09  0.1233E+03  0.1237E+03  0.2926E+07  0.1947E+07  0.0000E+00  0.3371E+05  0.1361E+04  0.4020E+01  0.6643E+06  0.2561E+06  0.6191E+00  0.1764E+06  0.6854E+05  0.1659E+00  0.1173E+05  0.2315E+05  0.7221E-01  0.5650E+03  0.2493E+03  0.7142E-03  0.3764E+05  0.1484E+05  0.3813E-01  0.1622E+05  0.6961E+04  0.1813E-01  0.1153E+05  0.1112E+05  0.1152E+01  0.0000E+00  0.0000E+00  0.0000E+00  0.0000E+00  0.0000E+00  0.0000E+00  0.0000E+00  0.0000E+00  0.0000E+00  0.0000E+00  0.0000E+00
RES          1    2  0.6660E+09  0.7298E+02  0.7200E+02  0.1856E+06  0.2646E+07  0.0000E+00  0.1051E+05  0.7216E+03  0.4000E+01  0.4180E+03  0.1352E+06  0.7314E+00  0.1130E+03  0.3519E+05  0.1900E+00  0.5792E+04  0.1082E+05  0.5916E-01  0.3205E+02  0.1498E+03  0.8138E-03  0.2321E+03  0.8218E+04  0.4449E-01  0.2963E+02  0.3636E+04  0.1963E-01  0.0000E+00  0.5889E+04  0.1297E+01  0.0000E+00  0.0000E+00  0.0000E+00  0.0000E+00  0.0000E+00  0.0000E+00  0.0000E+00  0.0000E+00  0.0000E+00  0.0000E+00  0.0000E+00
RES          1    3  0.6660E+09  0.2515E+02  0.2355E+02  0.5673E+06  0.4853E+07  0.0000E+00  0.2356E+04  0.2523E+03  0.4000E+01  0.0000E+00  0.3810E+05  0.5944E+00  0.0000E+00  0.9642E+04  0.1499E+00  0.1403E+05  0.3318E+04  0.5227E-01  0.5030E+02  0.4536E+02  0.7167E-03  0.1962E+03  0.2333E+04  0.3643E-01  0.4488E+01  0.9968E+03  0.1550E-01  0.0000E+00  0.1712E+04  0.1375E+01  0.0000E+00  0.0000E+00  0.0000E+00  0.0000E+00  0.0000E+00  0.0000E+00  0.0000E+00  0.0000E+00  0.0000E+00  0.0000E+00  0.0000E+00
RES          1    4  0.6660E+09  0.9601E+02  0.9629E+02  0.3923E+07  0.3186E+07  0.0000E+00  0.1796E+05  0.9983E+03  0.4000E+01  0.8836E+05  0.1311E+06  0.5290E+00  0.2700E+05  0.3298E+05  0.1324E+00  0.9300E+06  0.2036E+06  0.6996E+00  0.2536E+03  0.1970E+03  0.7785E-03  0.8642E+04  0.8690E+04  0.3459E-01  0.5127E+04  0.3902E+04  0.1528E-01  0.5664E+03  0.6125E+04  0.1433E+01  0.0000E+00  0.0000E+00  0.0000E+00  0.0000E+00  0.0000E+00  0.0000E+00  0.0000E+00  0.0000E+00  0.0000E+00  0.0000E+00  0.0000E+00
RES          1    5  0.6660E+09  0.8545E+02  0.8322E+02  0.4188E+06  0.6387E+07  0.0000E+00  0.1443E+05  0.8916E+03  0.4000E+01  0.4871E+04  0.9061E+05  0.3953E+00  0.1452E+04  0.2286E+05  0.9950E-01  0.2335E+06  0.2530E+06  0.1129E+01  0.1416E+03  0.1688E+03  0.7494E-03  0.1007E+04  0.6429E+04  0.2809E-01  0.3576E+03  0.2906E+04  0.1266E-01  0.3572E+01  0.4535E+04  0.1642E+01  0.0000E+00  0.0000E+00  0.0000E+00  0.0000E+00  0.0000E+00  0.0000E+00  0.0000E+00  0.0000E+00  0.0000E+00  0.0000E+00  0.0000E+00
RES          1    6  0.6660E+09  0.2747E+02  0.2472E+02  0.0000E+00  0.7137E+07  0.0000E+00  0.2686E+04  0.2562E+03  0.4000E+01  0.0000E+00  0.2030E+05  0.3114E+00  0.0000E+00  0.4977E+04  0.7606E-01  0.1901E+05  0.6501E+05  0.1001E+01  0.7926E+02  0.4531E+02  0.7104E-03  0.2263E+03  0.1465E+04  0.2252E-01  0.1635E+02  0.6341E+03  0.9694E-02  0.0000E+00  0.1057E+04  0.1740E+01  0.0000E+00  0.0000E+00  0.0000E+00  0.0000E+00  0.0000E+00  0.0000E+00  0.0000E+00  0.0000E+00  0.0000E+00  0.0000E+00  0.0000E+00
RES          1    7  0.6618E+09  0.2622E+01  0.1319E+01  0.0000E+00  0.7667E+07  0.0000E+00  0.1247E+03  0.1413E+02  0.4000E+01  0.0000E+00  0.1037E+04  0.2894E+00  0.0000E+00  0.2488E+03  0.6859E-01  0.7696E+03  0.3362E+04  0.9383E+00  0.2732E+02  0.2613E+01  0.7473E-03  0.7004E+02  0.7566E+02  0.2115E-01  0.1124E+02  0.3178E+02  0.8769E-02  0.0000E+00  0.5411E+02  0.1782E+01  0.0000E+00  0.0000E+00  0.0000E+00  0.0000E+00  0.0000E+00  0.0000E+00  0.0000E+00  0.0000E+00  0.0000E+00  0.0000E+00  0.0000E+00
RES          1    8  0.6546E+09  0.0000E+00  0.0000E+00  0.0000E+00  0.7233E+07  0.0000E+00  0.0000E+00  0.0000E+00  0.4000E+01  0.0000E+00  0.0000E+00  0.2815E+00  0.0000E+00  0.0000E+00  0.6473E-01  0.0000E+00  0.0000E+00  0.9130E+00  0.0000E+00  0.0000E+00  0.7380E-03  0.0000E+00  0.0000E+00  0.2061E-01  0.0000E+00  0.0000E+00  0.8281E-02  0.0000E+00  0.0000E+00  0.1818E+01  0.0000E+00  0.0000E+00  0.0000E+00  0.0000E+00  0.0000E+00  0.0000E+00  0.0000E+00  0.0000E+00  0.0000E+00  0.0000E+00  0.0000E+00
RES          1    9  0.6660E+09  0.4745E+02  0.4195E+02  0.2426E+07  0.5270E+07  0.0000E+00  0.1844E+05  0.4328E+03  0.4000E+01  0.6349E+06  0.9734E+05  0.3350E+00  0.1655E+06  0.2431E+05  0.7711E-01  0.6946E+05  0.9149E+05  0.8859E+00  0.3672E+03  0.1036E+03  0.7430E-03  0.5038E+05  0.7330E+04  0.2473E-01  0.2799E+05  0.3752E+04  0.1049E-01  0.6863E+04  0.4059E+04  0.1067E+01  0.0000E+00  0.0000E+00  0.0000E+00  0.0000E+00  0.0000E+00  0.0000E+00  0.0000E+00  0.0000E+00  0.0000E+00  0.0000E+00  0.0000E+00
RES          1   10  0.6660E+09  0.2182E+03  0.2195E+03  0.7279E+07  0.3892E+07  0.0000E+00  0.9660E+05  0.3046E+04  0.4228E+01  0.2011E+07  0.9615E+06  0.1126E+01  0.5388E+06  0.2481E+06  0.2840E+00  0.1431E+06  0.3746E+06  0.7283E+00  0.1957E+04  0.1203E+04  0.1946E-02  0.1168E+06  0.6706E+05  0.8978E-01  0.6862E+05  0.3619E+05  0.4711E-01  0.3316E+05  0.3499E+05  0.7700E+00  0.0000E+00  0.0000E+00  0.0000E+00  0.0000E+00  0.0000E+00  0.0000E+00  0.0000E+00  0.0000E+00  0.0000E+00  0.0000E+00  0.0000E+00
RES          1   11  0.6660E+09  0.3708E+03  0.3728E+03  0.7104E+07  0.1894E+07  0.0000E+00  0.1503E+06  0.4220E+04  0.4160E+01  0.8835E+06  0.1702E+07  0.1675E+01  0.2350E+06  0.4438E+06  0.4362E+00  0.3131E+05  0.2390E+06  0.2378E+00  0.8482E+03  0.1535E+04  0.1558E-02  0.4592E+05  0.1003E+06  0.9948E-01  0.2934E+05  0.5983E+05  0.5940E-01  0.1144E+05  0.6122E+05  0.9915E+00  0.0000E+00  0.0000E+00  0.0000E+00  0.0000E+00  0.0000E+00  0.0000E+00  0.0000E+00  0.0000E+00  0.0000E+00  0.0000E+00  0.0000E+00
RES          1   12  0.6660E+09  0.2498E+03  0.2495E+03  0.1654E+07  0.2324E+07  0.0000E+00  0.6911E+05  0.2696E+04  0.4016E+01  0.2177E+06  0.6732E+06  0.9326E+00  0.5856E+05  0.1755E+06  0.2426E+00  0.1112E+05  0.5661E+05  0.7928E-01  0.3418E+03  0.6262E+03  0.8847E-03  0.1648E+05  0.3863E+05  0.5374E-01  0.8151E+04  0.2094E+05  0.2904E-01  0.2068E+04  0.2748E+05  0.1327E+01  0.0000E+00  0.0000E+00  0.0000E+00  0.0000E+00  0.0000E+00  0.0000E+00  0.0000E+00  0.0000E+00  0.0000E+00  0.0000E+00  0.0000E+00
RES          1 2012  0.6660E+09  0.1099E+03  0.1090E+03  0.2648E+08  0.5444E+08  0.0000E+00  0.4162E+06  0.1489E+05  0.4036E+01  0.4505E+07  0.4106E+07  0.6506E+00  0.1203E+07  0.1066E+07  0.1653E+00  0.1470E+07  0.1324E+07  0.5676E+00  0.4664E+04  0.4325E+04  0.9254E-03  0.2776E+06  0.2554E+06  0.4278E-01  0.1559E+06  0.1398E+06  0.2114E-01  0.6562E+05  0.1582E+06  0.1327E+01  0.0000E+00  0.0000E+00  0.0000E+00  0.0000E+00  0.0000E+00  0.0000E+00  0.0000E+00  0.0000E+00  0.0000E+00  0.0000E+00  0.0000E+00
RES          1    1  0.6660E+09  0.3020E+03  0.3042E+03  0.7533E+07  0.1579E+07  0.0000E+00  0.1283E+06  0.3565E+04  0.4144E+01  0.2131E+07  0.1307E+07  0.1149E+01  0.5397E+06  0.3296E+06  0.2899E+00  0.1079E+05  0.3019E+05  0.4154E-01  0.1258E+04  0.8273E+03  0.8286E-03  0.1154E+06  0.7091E+05  0.6363E-01  0.5112E+05  0.3198E+05  0.2964E-01  0.2953E+05  0.4512E+05  0.9059E+00  0.0000E+00  0.0000E+00  0.0000E+00  0.0000E+00  0.0000E+00  0.0000E+00  0.0000E+00  0.0000E+00  0.0000E+00  0.0000E+00  0.0000E+00
RES          1    2  0.6660E+09  0.2619E+03  0.2621E+03  0.2550E+07  0.1927E+07  0.0000E+00  0.6413E+05  0.2446E+04  0.4148E+01  0.2550E+06  0.7553E+06  0.1282E+01  0.6420E+05  0.1871E+06  0.3176E+00  0.8137E+04  0.1254E+05  0.2137E-01  0.7178E+03  0.6163E+03  0.1023E-02  0.2449E+05  0.4382E+05  0.7386E-01  0.8545E+04  0.1916E+05  0.3247E-01  0.1927E+04  0.2803E+05  0.1122E+01  0.0000E+00  0.0000E+00  0.0000E+00  0.0000E+00  0.0000E+00  0.0000E+00  0.0000E+00  0.0000E+00  0.0000E+00  0.0000E+00  0.0000E+00
RES          1    3  0.6660E+09  0.6403E+03  0.6453E+03  0.1554E+08  0.2190E+07  0.0000E+00  0.3895E+06  0.1049E+05  0.5034E+01  0.3152E+07  0.3215E+07  0.1680E+01  0.7935E+06  0.8003E+06  0.4175E+00  0.5503E+05  0.2460E+05  0.1454E-01  0.1220E+04  0.1783E+04  0.1018E-02  0.1112E+06  0.1316E+06  0.7215E-01  0.6410E+05  0.6784E+05  0.3676E-01  0.5484E+05  0.1059E+06  0.1200E+01  0.0000E+00  0.0000E+00  0.0000E+00  0.0000E+00  0.0000E+00  0.0000E+00  0.0000E+00  0.0000E+00  0.0000E+00  0.0000E+00  0.0000E+00
RES          1    4  0.6660E+09  0.4470E+03  0.4463E+03  0.3165E+07  0.4736E+07  0.0000E+00  0.1589E+06  0.4791E+04  0.4080E+01  0.7707E+05  0.5084E+06  0.3850E+00  0.2607E+05  0.1294E+06  0.9807E-01  0.7806E+06  0.4789E+06  0.4439E+00  0.1027E+03  0.3050E+03  0.2395E-03  0.4207E+04  0.2147E+05  0.1637E-01  0.3788E+04  0.1299E+05  0.9905E-02  0.8896E+03  0.2433E+05  0.2064E+01  0.0000E+00  0.0000E+00  0.0000E+00  0.0000E+00  0.0000E+00  0.0000E+00  0.0000E+00  0.0000E+00  0.0000E+00  0.0000E+00  0.0000E+00
RES          1    5  0.6660E+09  0.2094E+03  0.2081E+03  0.1113E+07  0.4666E+07  0.0000E+00  0.5193E+05  0.2229E+04  0.4000E+01  0.3625E+00  0.6592E+05  0.1137E+00  0.8273E+02  0.1652E+05  0.2845E-01  0.2736E+06  0.2918E+06  0.5201E+00  0.4729E+02  0.6625E+02  0.1176E-03  0.3057E+03  0.2999E+04  0.5192E-02  0.3108E+02  0.1712E+04  0.2951E-02  0.0000E+00  0.4324E+04  0.2838E+01  0.0000E+00  0.0000E+00  0.0000E+00  0.0000E+00  0.0000E+00  0.0000E+00  0.0000E+00  0.0000E+00  0.0000E+00  0.0000E+00  0.0000E+00
RES          1    6  0.6660E+09  0.8878E+02  0.8617E+02  0.0000E+00  0.6749E+07  0.0000E+00  0.1470E+05  0.8934E+03  0.4000E+01  0.0000E+00  0.1406E+05  0.6064E-01  0.0000E+00  0.3433E+04  0.1476E-01  0.2469E+05  0.8882E+05  0.3864E+00  0.8347E+02  0.2793E+02  0.1326E-03  0.3033E+03  0.7136E+03  0.3123E-02  0.0000E+00  0.3585E+03  0.1542E-02  0.0000E+00  0.1058E+04  0.3274E+01  0.0000E+00  0.0000E+00  0.0000E+00  0.0000E+00  0.0000E+00  0.0000E+00  0.0000E+00  0.0000E+00  0.0000E+00  0.0000E+00  0.0000E+00
RES          1    7  0.6660E+09  0.1602E+02  0.1299E+02  0.0000E+00  0.8131E+07  0.0000E+00  0.1360E+04  0.1392E+03  0.4000E+01  0.0000E+00  0.1749E+04  0.4930E-01  0.0000E+00  0.4160E+03  0.1164E-01  0.1993E+04  0.1155E+05  0.3261E+00  0.9001E+02  0.7885E+01  0.2535E-03  0.2070E+03  0.1013E+03  0.2926E-02  0.9742E+01  0.4347E+02  0.1220E-02  0.0000E+00  0.1363E+03  0.3416E+01  0.0000E+00  0.0000E+00  0.0000E+00  0.0000E+00  0.0000E+00  0.0000E+00  0.0000E+00  0.0000E+00  0.0000E+00  0.0000E+00  0.0000E+00
RES          1    8  0.6625E+09  0.1613E+01  0.6444E-01  0.0000E+00  0.7671E+07  0.0000E+00  0.3687E+02  0.6904E+00  0.4000E+01  0.0000E+00  0.8202E+01  0.4696E-01  0.0000E+00  0.1900E+01  0.1076E-01  0.2769E+03  0.5441E+02  0.3117E+00  0.3511E+02  0.5329E-01  0.3252E-03  0.8179E+02  0.5120E+00  0.2978E-02  0.1704E+02  0.2017E+00  0.1152E-02  0.0000E+00  0.6357E+00  0.3491E+01  0.0000E+00  0.0000E+00  0.0000E+00  0.0000E+00  0.0000E+00  0.0000E+00  0.0000E+00  0.0000E+00  0.0000E+00  0.0000E+00  0.0000E+00
RES          1    9  0.6660E+09  0.2068E+02  0.1828E+02  0.2453E+07  0.5144E+07  0.0000E+00  0.1937E+04  0.1894E+03  0.3998E+01  0.1193E+04  0.2121E+04  0.4514E-01  0.2341E+03  0.4668E+03  0.1001E-01  0.8006E+05  0.1705E+05  0.3418E+00  0.1671E+03  0.2384E+02  0.4467E-03  0.5112E+03  0.1598E+03  0.3228E-02  0.1907E+03  0.5988E+02  0.1208E-02  0.0000E+00  0.1628E+03  0.3599E+01  0.0000E+00  0.0000E+00  0.0000E+00  0.0000E+00  0.0000E+00  0.0000E+00  0.0000E+00  0.0000E+00  0.0000E+00  0.0000E+00  0.0000E+00
RES          1   10  0.6660E+09  0.2074E+02  0.1912E+02  0.4718E+06  0.4800E+07  0.0000E+00  0.1897E+04  0.2047E+03  0.3996E+01  0.6160E+01  0.2086E+04  0.4029E-01  0.1439E+01  0.4498E+03  0.8660E-02  0.4032E+05  0.2061E+05  0.4036E+00  0.8054E+02  0.2891E+02  0.5703E-03  0.2168E+03  0.1715E+03  0.3344E-02  0.3501E+02  0.6062E+02  0.1172E-02  0.0000E+00  0.1619E+03  0.3783E+01  0.0000E+00  0.0000E+00  0.0000E+00  0.0000E+00  0.0000E+00  0.0000E+00  0.0000E+00  0.0000E+00  0.0000E+00  0.0000E+00  0.0000E+00
RES          1   11  0.6660E+09  0.7728E+02  0.7700E+02  0.2396E+07  0.3140E+07  0.0000E+00  0.2368E+05  0.7975E+03  0.3996E+01  0.4278E+06  0.8307E+05  0.1723E+00  0.1232E+06  0.2341E+05  0.4680E-01  0.4068E+05  0.7348E+05  0.3863E+00  0.5969E+03  0.1721E+03  0.7194E-03  0.3354E+05  0.6037E+04  0.1346E-01  0.1899E+05  0.3287E+04  0.6895E-02  0.5409E+04  0.4376E+04  0.1304E+01  0.0000E+00  0.0000E+00  0.0000E+00  0.0000E+00  0.0000E+00  0.0000E+00  0.0000E+00  0.0000E+00  0.0000E+00  0.0000E+00  0.0000E+00
RES          1   12  0.6660E+09  0.1160E+03  0.1158E+03  0.2280E+07  0.2605E+07  0.0000E+00  0.2536E+05  0.1240E+04  0.3996E+01  0.6281E+05  0.1432E+06  0.4650E+00  0.3183E+05  0.4215E+05  0.1331E+00  0.2498E+05  0.8790E+05  0.2945E+00  0.1353E+03  0.3163E+03  0.1044E-02  0.5351E+04  0.1151E+05  0.3749E-01  0.4967E+04  0.6540E+04  0.2080E-01  0.5990E+03  0.7969E+04  0.1387E+01  0.0000E+00  0.0000E+00  0.0000E+00  0.0000E+00  0.0000E+00  0.0000E+00  0.0000E+00  0.0000E+00  0.0000E+00  0.0000E+00  0.0000E+00
RES          1 2013  0.6660E+09  0.1824E+03  0.1819E+03  0.3750E+08  0.5334E+08  0.0000E+00  0.8617E+06  0.2698E+05  0.4106E+01  0.6106E+07  0.6097E+07  0.4503E+00  0.1579E+07  0.1533E+07  0.1139E+00  0.1341E+07  0.1138E+07  0.2921E+00  0.4533E+04  0.4175E+04  0.5552E-03  0.2958E+06  0.2895E+06  0.2438E-01  0.1518E+06  0.1440E+06  0.1197E-01  0.9319E+05  0.2216E+06  0.1387E+01  0.0000E+00  0.0000E+00  0.0000E+00  0.0000E+00  0.0000E+00  0.0000E+00  0.0000E+00  0.0000E+00  0.0000E+00  0.0000E+00  0.0000E+00
RES          1    1  0.6660E+09  0.2531E+03  0.2548E+03  0.6272E+07  0.1919E+07  0.0000E+00  0.1139E+06  0.4139E+04  0.4356E+01  0.2616E+07  0.1355E+07  0.1407E+01  0.7056E+06  0.3716E+06  0.3896E+00  0.1506E+05  0.1024E+06  0.1657E+00  0.6868E+03  0.6013E+03  0.8901E-03  0.9864E+05  0.5586E+05  0.6550E-01  0.5639E+05  0.3215E+05  0.3798E-01  0.5318E+05  0.4650E+05  0.8159E+00  0.0000E+00  0.0000E+00  0.0000E+00  0.0000E+00  0.0000E+00  0.0000E+00  0.0000E+00  0.0000E+00  0.0000E+00  0.0000E+00  0.0000E+00
RES          1    2  0.6660E+09  0.2549E+03  0.2553E+03  0.2561E+07  0.1757E+07  0.0000E+00  0.6033E+05  0.2382E+04  0.4148E+01  0.2694E+05  0.8787E+06  0.1481E+01  0.7541E+04  0.2339E+06  0.3939E+00  0.9096E+04  0.4056E+05  0.6879E-01  0.7481E+02  0.4119E+03  0.6972E-03  0.2075E+04  0.3757E+05  0.6336E-01  0.1051E+04  0.2114E+05  0.3562E-01  0.1153E+03  0.3263E+05  0.1133E+01  0.0000E+00  0.0000E+00  0.0000E+00  0.0000E+00  0.0000E+00  0.0000E+00  0.0000E+00  0.0000E+00  0.0000E+00  0.0000E+00  0.0000E+00
RES          1    3  0.6660E+09  0.1681E+03  0.1669E+03  0.1097E+07  0.4308E+07  0.0000E+00  0.3914E+05  0.1788E+04  0.4000E+01  0.2139E+05  0.3035E+06  0.6442E+00  0.6190E+04  0.7888E+05  0.1671E+00  0.3208E+05  0.1756E+05  0.3822E-01  0.7810E+02  0.1746E+03  0.3763E-03  0.1899E+04  0.1348E+05  0.2866E-01  0.7937E+03  0.7258E+04  0.1538E-01  0.7652E+02  0.1338E+05  0.1449E+01  0.0000E+00  0.0000E+00  0.0000E+00  0.0000E+00  0.0000E+00  0.0000E+00  0.0000E+00  0.0000E+00  0.0000E+00  0.0000E+00  0.0000E+00
RES          1    4  0.6660E+09  0.1801E+03  0.1791E+03  0.2805E+07  0.5373E+07  0.0000E+00  0.4601E+05  0.1857E+04  0.4000E+01  0.9711E+05  0.2009E+06  0.4109E+00  0.2788E+05  0.5223E+05  0.1066E+00  0.6308E+06  0.1857E+06  0.4479E+00  0.2456E+03  0.1922E+03  0.4177E-03  0.6524E+04  0.9883E+04  0.2044E-01  0.3617E+04  0.5257E+04  0.1083E-01  0.6484E+03  0.9937E+04  0.1691E+01  0.0000E+00  0.0000E+00  0.0000E+00  0.0000E+00  0.0000E+00  0.0000E+00  0.0000E+00  0.0000E+00  0.0000E+00  0.0000E+00  0.0000E+00
RES          1    5  0.6660E+09  0.6559E+02  0.6329E+02  0.5832E+05  0.6211E+07  0.0000E+00  0.1004E+05  0.6781E+03  0.4000E+01  0.0000E+00  0.4522E+05  0.2594E+00  0.0000E+00  0.1144E+05  0.6545E-01  0.1667E+06  0.1294E+06  0.7634E+00  0.8222E+02  0.6269E+02  0.3721E-03  0.3033E+03  0.2346E+04  0.1350E-01  0.2068E+00  0.1183E+04  0.6764E-02  0.0000E+00  0.2470E+04  0.1897E+01  0.0000E+00  0.0000E+00  0.0000E+00  0.0000E+00  0.0000E+00  0.0000E+00  0.0000E+00  0.0000E+00  0.0000E+00  0.0000E+00  0.0000E+00
RES          1    6  0.6660E+09  0.2256E+02  0.1985E+02  0.0000E+00  0.7017E+07  0.0000E+00  0.2242E+04  0.2058E+03  0.4000E+01  0.0000E+00  0.1124E+05  0.2146E+00  0.0000E+00  0.2766E+04  0.5253E-01  0.8137E+05  0.3938E+05  0.7718E+00  0.8387E+02  0.2119E+02  0.4259E-03  0.2188E+03  0.6016E+03  0.1154E-01  0.2257E+01  0.2859E+03  0.5430E-02  0.0000E+00  0.6311E+03  0.1996E+01  0.0000E+00  0.0000E+00  0.0000E+00  0.0000E+00  0.0000E+00  0.0000E+00  0.0000E+00  0.0000E+00  0.0000E+00  0.0000E+00  0.0000E+00
RES          1    7  0.6605E+09  0.1003E+01  0.2106E+00  0.0000E+00  0.7623E+07  0.0000E+00  0.3280E+02  0.2256E+01  0.4000E+01  0.0000E+00  0.1156E+03  0.2023E+00  0.1404E-05  0.2784E+02  0.4807E-01  0.3722E+04  0.4414E+03  0.7753E+00  0.1439E+02  0.2643E+00  0.4748E-03  0.3670E+02  0.6303E+01  0.1106E-01  0.3515E+01  0.2880E+01  0.4975E-02  0.0000E+00  0.6485E+01  0.2040E+01  0.0000E+00  0.0000E+00  0.0000E+00  0.0000E+00  0.0000E+00  0.0000E+00  0.0000E+00  0.0000E+00  0.0000E+00  0.0000E+00  0.0000E+00
RES          1 2014  0.6605E+09  0.1325E+03  0.1316E+03  0.1279E+08  0.3421E+08  0.0000E+00  0.2717E+06  0.1105E+05  0.4052E+01  0.2761E+07  0.2795E+07  0.6446E+00  0.7473E+06  0.7509E+06  0.1707E+00  0.9388E+06  0.5154E+06  0.4362E+00  0.1266E+04  0.1464E+04  0.5172E-03  0.1097E+06  0.1197E+06  0.2995E-01  0.6185E+05  0.6728E+05  0.1636E-01  0.5402E+05  0.1055E+06  0.2040E+01  0.0000E+00  0.0000E+00  0.0000E+00  0.0000E+00  0.0000E+00  0.0000E+00  0.0000E+00  0.0000E+00  0.0000E+00  0.0000E+00  0.0000E+00
