1
    SWAT Aug 6  VER 2025/Rev 699                                                                         0/ 0/   0      0: 0: 0

    General Input/Output section (file.cio):                                        
    10/21/2025 12:00:00 AM ARCGIS-SWAT interface AV                                 
                                                                                    
         Number of years in run:   25
         Area of watershed:     6118.193 km2
1
    SWAT Aug 6  VER 2025/Rev 699                                                    

    General Input/Output section (file.cio):                                        
    10/21/2025 12:00:00 AM ARCGIS-SWAT interface AV                                 
                                                                                    
Annual Summary for Watershed in year    1 of simulation

UNIT                                    PERCO    TILE                           WATER     SED     NO3     NO3     NO3     NO3        N       P       P
TIME     PREC    SURQ    LATQ     GWQ    LATE       Q     SW       ET     PET   YIELD   YIELD    SURQ    LATQ    PERC    CROP  ORGANIC SOLUBLE ORGANIC TILENO3
         (mm)    (mm)    (mm)    (mm)    (mm)    (mm)    (mm)    (mm)    (mm)    (mm)   (t/ha)  ------------------(kg nutrient/ha)-------------------- (kg/ha)
    1  100.69   11.68   21.33    7.28   38.01    0.00    8.52   15.03   49.46   40.40   17.25    0.01    0.51    5.30    0.00    19.29    0.00    2.36    0.00
    2    0.22    0.00   10.02   12.16    0.15    0.00    0.59    7.97   80.79   22.46    0.00    0.00    0.04    0.00    0.00     0.01    0.00    0.00    0.00
    3   41.11    0.02    8.47   10.73    9.78    0.00    8.43   11.45  111.92   19.57    0.01    0.00    0.24    5.75    0.25     0.01    0.00    0.00    0.00
    4  144.14   14.81   37.52   16.06   54.04    0.00    6.49   30.10   86.46   68.89   16.03    0.69    5.35   39.75    8.95    12.51    0.00    1.53    0.00
    5   23.02    0.00   18.71   24.83    4.94    0.00    0.02   18.27  148.80   44.31    0.00    0.00    2.63    2.09    7.44     0.00    0.00    0.00    0.00
    6    1.87    0.00    1.64   11.26    0.00    0.00    0.00    1.67  187.49   13.65    0.00    0.00    0.18    0.00    0.04     0.00    0.00    0.00    0.00
    7    1.17    0.00    0.14    1.63    0.00    0.00    0.00    1.17  211.81    2.42    0.00    0.00    0.01    0.00    0.03     0.00    0.00    0.00    0.00
    8    0.10    0.00    0.02    0.01    0.00    0.00    0.00    0.10  219.19    0.54    0.00    0.00    0.00    0.00    0.01     0.00    0.00    0.00    0.00
    9   13.66    0.00    1.66    0.00    0.66    0.00    0.46   10.01  158.35    2.03    0.00    0.00    0.19    0.53    0.08     0.00    0.00    0.00    0.00
   10   58.62    1.29   13.19    0.56   15.92    0.00    1.29   23.44   96.81   15.35    0.85    0.00    0.57    4.06    0.04     0.23    0.00    0.03    0.00
   11   97.39   10.81   19.91    4.69   34.65    0.00    5.67   16.34   72.92   35.75    4.24    0.00    0.21    1.11    0.01     3.39    0.00    0.41    0.00
   12  164.01   19.11   61.94   30.48   73.45    0.00    3.73   18.32   35.45  112.33    9.02    0.00    0.09    0.21    0.02     8.62    0.00    1.03    0.00

 1990  646.00   57.72  194.56  119.70  231.60    0.00    3.73  153.86 1459.43  377.69   47.40    0.71   10.00   58.80   16.86    44.06    0.01    5.37    0.00
1
    SWAT Aug 6  VER 2025/Rev 699                                                    

    General Input/Output section (file.cio):                                        
    10/21/2025 12:00:00 AM ARCGIS-SWAT interface AV                                 
                                                                                    
Annual Summary for Watershed in year    2 of simulation

UNIT                                    PERCO    TILE                           WATER     SED     NO3     NO3     NO3     NO3        N       P       P
TIME     PREC    SURQ    LATQ     GWQ    LATE       Q     SW       ET     PET   YIELD   YIELD    SURQ    LATQ    PERC    CROP  ORGANIC SOLUBLE ORGANIC TILENO3
         (mm)    (mm)    (mm)    (mm)    (mm)    (mm)    (mm)    (mm)    (mm)    (mm)   (t/ha)  ------------------(kg nutrient/ha)-------------------- (kg/ha)
    1    8.46    0.00    9.61   37.57    0.71    0.00    2.07    7.64   58.48   48.37    0.00    0.00    0.02    0.02    0.00     0.00    0.00    0.00    0.00
    2  176.57    8.59   40.55   27.15   77.51    0.00    8.68   19.89   37.98   77.30    5.68    0.00    0.03    0.27    0.00     3.22    0.00    0.39    0.00
    3  233.10   28.69   85.92   59.09   93.78    0.00    5.12   36.49   87.25  175.62   18.63    0.00    0.02    0.09    0.00     9.77    0.00    1.20    0.00
    4   22.34    0.00   18.58   57.52    2.95    0.00    1.02   18.96   95.36   78.23    0.00    0.00    0.19    0.02    1.85     0.00    0.00    0.00    0.00
    5    2.22    0.00    2.38   32.54    0.00    0.00    0.07    3.03  132.31   36.92    0.00    0.00    0.11    0.00    1.13     0.00    0.00    0.00    0.00
    6    0.08    0.00    0.25    7.96    0.00    0.00    0.00    0.15  195.77    9.78    0.00    0.00    0.03    0.00    0.05     0.00    0.00    0.00    0.00
    7    3.36    0.00    0.22    0.23    0.00    0.00    0.01    3.14  217.09    1.70    0.00    0.00    0.08    0.00    0.04     0.00    0.00    0.00    0.00
    8   72.24    2.33   18.96    3.55   27.62    0.00    0.57   14.64  207.48   25.82    1.40    0.00    0.63    3.58    0.03     0.15    0.00    0.02    0.00
    9   43.67    0.24   11.34   10.42   12.94    0.00    6.12   11.46  153.95   22.88    0.21    0.00    0.52    8.64    0.05     0.06    0.00    0.01    0.00
   10   88.41    7.28   32.43   13.60   32.85    0.00    1.91   24.45   90.37   54.24    6.43    0.00    0.88    1.57    0.04     0.94    0.00    0.11    0.00
   11   32.95    0.03    9.46   17.14    6.04    0.00    8.22   11.40   73.21   27.59    0.02    0.00    0.07    0.06    0.02     0.00    0.00    0.00    0.00
   12   38.18    0.50   15.79   14.86   14.36    0.00    1.66   17.10   58.53   32.08    0.56    0.00    0.02    0.13    0.03     0.10    0.00    0.01    0.00

 1991  721.57   47.67  245.50  281.63  268.75    0.00    1.66  168.36 1407.77  590.53   32.94    0.01    2.61   14.37    3.24    14.22    0.00    1.74    0.00
1
    SWAT Aug 6  VER 2025/Rev 699                                                    

    General Input/Output section (file.cio):                                        
    10/21/2025 12:00:00 AM ARCGIS-SWAT interface AV                                 
                                                                                    
Annual Summary for Watershed in year    3 of simulation

UNIT                                    PERCO    TILE                           WATER     SED     NO3     NO3     NO3     NO3        N       P       P
TIME     PREC    SURQ    LATQ     GWQ    LATE       Q     SW       ET     PET   YIELD   YIELD    SURQ    LATQ    PERC    CROP  ORGANIC SOLUBLE ORGANIC TILENO3
         (mm)    (mm)    (mm)    (mm)    (mm)    (mm)    (mm)    (mm)    (mm)    (mm)   (t/ha)  ------------------(kg nutrient/ha)-------------------- (kg/ha)
    1    1.64    0.00    2.43   10.84    0.00    0.00    0.85    2.41   56.35   14.12    0.00    0.00    0.00    0.00    0.00     0.00    0.00    0.00    0.00
    2   69.06    4.44   15.15    3.76   26.75    0.00    4.17   10.48   59.56   24.03    3.30    0.00    0.02    0.16    0.00     2.80    0.00    0.34    0.00
    3   58.25    2.45   13.75   12.45   19.41    0.00    8.65   13.44   97.98   29.20    2.28    0.01    0.19    4.03    0.45     0.75    0.00    0.09    0.00
    4  160.90   25.71   62.69   33.74   71.68    0.00    0.10   17.46  123.29  123.34   21.90    0.36    2.07   13.12    4.19    10.66    0.00    1.31    0.00
    5    8.23    0.00    6.10   35.40    0.08    0.00    0.09    7.30  134.89   42.82    0.00    0.00    0.35    0.04    2.66     0.00    0.00    0.00    0.00
    6   48.40    0.19   11.86   16.70   14.20    0.00    0.26   17.36  139.89   29.91    0.02    0.00    0.39    2.29    0.94     0.00    0.00    0.00    0.00
    7    0.58    0.00    4.86    8.17    0.00    0.00    0.54    0.27  212.50   14.08    0.00    0.00    0.10    0.00    0.04     0.00    0.00    0.00    0.00
    8    8.41    0.00    1.16    0.89    0.00    0.00    0.13    7.66  201.67    2.90    0.00    0.00    0.10    0.00    0.05     0.00    0.00    0.00    0.00
    9    6.57    0.00    0.73    0.02    0.17    0.00    0.77    4.68  165.44    1.39    0.00    0.00    0.05    0.30    0.04     0.00    0.00    0.00    0.00
   10   99.83    3.47   23.11    2.65   34.86    0.00    7.22   22.52   82.88   29.78    0.73    0.00    0.37    3.96    0.03     0.24    0.00    0.03    0.00
   11   10.54    0.00   11.40   11.16    1.63    0.00    0.51   13.12   81.40   23.18    0.00    0.00    0.08    0.03    0.02     0.00    0.00    0.00    0.00
   12   65.43    1.09   21.05   14.20   24.18    0.00    1.95   15.86   54.04   37.02    0.38    0.00    0.04    0.25    0.04     0.05    0.00    0.01    0.00

 1992  537.86   37.35  174.28  149.97  192.96    0.00    1.95  132.55 1409.88  371.76   28.61    0.38    3.75   24.18    8.46    14.51    0.00    1.77    0.00
1
    SWAT Aug 6  VER 2025/Rev 699                                                    

    General Input/Output section (file.cio):                                        
    10/21/2025 12:00:00 AM ARCGIS-SWAT interface AV                                 
                                                                                    
Annual Summary for Watershed in year    4 of simulation

UNIT                                    PERCO    TILE                           WATER     SED     NO3     NO3     NO3     NO3        N       P       P
TIME     PREC    SURQ    LATQ     GWQ    LATE       Q     SW       ET     PET   YIELD   YIELD    SURQ    LATQ    PERC    CROP  ORGANIC SOLUBLE ORGANIC TILENO3
         (mm)    (mm)    (mm)    (mm)    (mm)    (mm)    (mm)    (mm)    (mm)    (mm)   (t/ha)  ------------------(kg nutrient/ha)-------------------- (kg/ha)
    1   10.68    0.00    3.31   12.67    0.53    0.00    6.21    3.86   67.65   16.67    0.00    0.00    0.01    0.02    0.00     0.00    0.00    0.00    0.00
    2   17.28    0.00    2.32    4.49    2.84    0.00    8.62    7.77   63.28    7.35    0.00    0.00    0.01    0.14    0.00     0.00    0.00    0.00    0.00
    3   79.57    2.16   26.88   10.81   31.12    0.00    0.81   27.49  106.14   40.45    2.01    0.00    0.04    0.17    0.06     0.64    0.00    0.08    0.00
    4   99.48    4.98   20.61   14.94   38.05    0.00    7.97   15.47   88.74   41.19    3.31    0.08    1.14   13.23    4.28     1.37    0.00    0.17    0.00
    5   73.79    4.49   37.81   29.32   27.10    0.00    0.05   25.77  126.47   72.57    2.47    0.06    1.78    4.55    8.38     0.80    0.00    0.10    0.00
    6    0.00    0.00    2.91   20.90    0.00    0.00    0.00    0.05  185.01   24.81    0.00    0.00    0.12    0.00    0.04     0.00    0.00    0.00    0.00
    7    0.00    0.00    0.23    3.68    0.00    0.00    0.00    0.00  235.80    4.80    0.00    0.00    0.01    0.00    0.02     0.00    0.00    0.00    0.00
    8    3.27    0.00    0.46    0.18    0.00    0.00    0.03    2.66  204.49    1.33    0.00    0.00    0.04    0.00    0.02     0.00    0.00    0.00    0.00
    9   21.45    0.04    4.91    0.22    4.75    0.00    0.54    9.43  133.39    5.69    0.01    0.00    0.26    1.67    0.06     0.00    0.00    0.00    0.00
   10   94.64    3.44   21.61    4.24   30.25    0.00    8.67   23.62   83.27   29.79    1.77    0.00    0.32    2.32    0.03     0.65    0.00    0.08    0.00
   11  232.04   34.15   76.66   35.61  100.89    0.00    6.66   21.82   45.94  147.37   11.80    0.01    0.09    0.22    0.02     8.09    0.00    0.98    0.00
   12   37.63    0.53   20.41   45.76   13.80    0.00    2.25   14.23   56.19   68.14    0.40    0.00    0.03    0.12    0.04     0.12    0.00    0.01    0.00

 1993  669.82   49.81  218.13  182.80  249.32    0.00    2.25  152.15 1396.37  460.15   21.77    0.15    3.84   22.45   12.96    11.69    0.01    1.42    0.00
1
    SWAT Aug 6  VER 2025/Rev 699                                                    

    General Input/Output section (file.cio):                                        
    10/21/2025 12:00:00 AM ARCGIS-SWAT interface AV                                 
                                                                                    
Annual Summary for Watershed in year    5 of simulation

UNIT                                    PERCO    TILE                           WATER     SED     NO3     NO3     NO3     NO3        N       P       P
TIME     PREC    SURQ    LATQ     GWQ    LATE       Q     SW       ET     PET   YIELD   YIELD    SURQ    LATQ    PERC    CROP  ORGANIC SOLUBLE ORGANIC TILENO3
         (mm)    (mm)    (mm)    (mm)    (mm)    (mm)    (mm)    (mm)    (mm)    (mm)   (t/ha)  ------------------(kg nutrient/ha)-------------------- (kg/ha)
    1   98.69    9.61   30.16   38.40   44.84    0.00    2.19   13.00   52.89   79.72    7.16    0.00    0.02    0.17    0.00     3.16    0.00    0.39    0.00
    2  168.74   18.01   34.05   34.28   71.21    0.00    8.68   15.87   49.96   86.80   14.80    0.00    0.02    0.21    0.00     4.79    0.00    0.59    0.00
    3   26.87    0.07   30.52   42.93    7.86    0.00    1.69   17.67  123.36   76.42    0.06    0.00    0.03    0.28    0.05     0.35    0.00    0.04    0.00
    4   62.10    4.86   18.12   30.59   18.35    0.00    0.99   21.49  101.75   55.29    5.94    0.01    0.74    5.39    3.45     0.74    0.00    0.09    0.00
    5   33.05    0.46   12.40   19.48    8.32    0.00    0.12   15.28  129.32   33.94    0.22    0.00    0.71    2.74    7.35     0.04    0.00    0.00    0.00
    6    0.13    0.00    2.36    7.63    0.00    0.00    0.00    0.25  200.99   11.30    0.00    0.00    0.13    0.00    0.04     0.00    0.00    0.00    0.00
    7    0.70    0.00    0.18    0.67    0.00    0.00    0.04    0.66  244.52    1.91    0.00    0.00    0.01    0.00    0.02     0.00    0.00    0.00    0.00
    8    0.41    0.00    0.02    0.01    0.00    0.00    0.00    0.44  219.61    0.84    0.00    0.00    0.00    0.00    0.01     0.00    0.00    0.00    0.00
    9   26.24    0.00    2.20    0.00    3.75    0.00    8.36    7.25  145.47    2.79    0.00    0.00    0.16    1.88    0.08     0.00    0.00    0.00    0.00
   10   90.59    1.28   20.73    1.05   34.44    0.00    8.51   22.71   99.30   23.52    0.71    0.00    0.38    1.67    0.04     0.31    0.00    0.04    0.00
   11   84.54   13.51   39.64   18.06   34.07    0.00    0.32   18.07   86.73   72.00    5.91    0.00    0.08    0.09    0.02     2.75    0.00    0.33    0.00
   12    3.62    0.00    3.42   20.76    0.00    0.00    0.46    2.96   66.87   25.06    0.00    0.00    0.01    0.00    0.03     0.00    0.00    0.00    0.00

 1994  595.68   47.81  193.82  213.87  222.84    0.00    0.46  135.65 1520.79  469.58   34.79    0.02    2.29   12.42   11.09    12.13    0.00    1.48    0.00
1
    SWAT Aug 6  VER 2025/Rev 699                                                    

    General Input/Output section (file.cio):                                        
    10/21/2025 12:00:00 AM ARCGIS-SWAT interface AV                                 
                                                                                    
Annual Summary for Watershed in year    6 of simulation

UNIT                                    PERCO    TILE                           WATER     SED     NO3     NO3     NO3     NO3        N       P       P
TIME     PREC    SURQ    LATQ     GWQ    LATE       Q     SW       ET     PET   YIELD   YIELD    SURQ    LATQ    PERC    CROP  ORGANIC SOLUBLE ORGANIC TILENO3
         (mm)    (mm)    (mm)    (mm)    (mm)    (mm)    (mm)    (mm)    (mm)    (mm)   (t/ha)  ------------------(kg nutrient/ha)-------------------- (kg/ha)
    1   36.36    0.20    9.10   12.09    9.52    0.00    2.30   13.84   63.24   22.18    0.17    0.00    0.04    0.23    0.00     0.05    0.00    0.01    0.00
    2   33.90    1.36    9.54    7.22    8.21    0.00    6.25   10.40   66.67   18.77    1.21    0.00    0.02    0.14    0.00     0.33    0.00    0.04    0.00
    3   58.92    1.50   19.55   10.91   23.15    0.00    0.53   20.34  111.39   32.65    1.01    0.00    0.02    0.19    0.06     0.49    0.00    0.06    0.00
    4   56.83    0.00   13.65   12.84   11.95    0.00    2.67   25.73  122.78   27.20    0.00    0.00    0.64    4.10    6.97     0.00    0.00    0.00    0.00
    5    9.15    0.00    6.90    7.69    0.03    0.00    0.01   10.66  155.35   15.28    0.00    0.00    0.42    0.01    3.66     0.00    0.00    0.00    0.00
    6   38.73    0.09    5.60    0.98    8.19    0.00    1.11   18.70  161.96    7.23    0.01    0.00    0.03    0.08    0.05     0.01    0.00    0.00    0.00
    7    1.60    0.00    5.20    2.13    0.00    0.00    0.00    2.69  220.47    7.83    0.00    0.00    0.01    0.00    0.04     0.00    0.00    0.00    0.00
    8    2.13    0.00    0.33    0.04    0.00    0.00    1.77    0.16  218.06    0.79    0.00    0.00    0.00    0.00    0.02     0.00    0.00    0.00    0.00
    9    9.43    0.00    1.42    0.00    0.21    0.00    0.00    9.65  129.30    1.74    0.00    0.00    0.11    0.13    0.06     0.00    0.00    0.00    0.00
   10    6.86    0.00    0.75    0.00    0.00    0.00    0.00    6.09  129.97    0.99    0.00    0.00    0.05    0.00    0.03     0.00    0.00    0.00    0.00
   11   88.83    1.43   19.47    1.09   34.96    0.00    8.68   12.80   92.69   22.22    0.55    0.01    0.30    2.90    0.01     0.23    0.00    0.03    0.00
   12  259.53   53.73   44.85   14.57  104.29    0.00    8.68   23.61   37.83  112.98   24.76    0.00    0.09    0.20    0.01     9.11    0.00    1.10    0.00

 1995  602.26   58.30  136.36   69.57  200.52    0.00    8.68  154.64 1509.70  269.85   27.71    0.01    1.72    8.00   10.92    10.22    0.01    1.24    0.00
1
    SWAT Aug 6  VER 2025/Rev 699                                                    

    General Input/Output section (file.cio):                                        
    10/21/2025 12:00:00 AM ARCGIS-SWAT interface AV                                 
                                                                                    
Annual Summary for Watershed in year    7 of simulation

UNIT                                    PERCO    TILE                           WATER     SED     NO3     NO3     NO3     NO3        N       P       P
TIME     PREC    SURQ    LATQ     GWQ    LATE       Q     SW       ET     PET   YIELD   YIELD    SURQ    LATQ    PERC    CROP  ORGANIC SOLUBLE ORGANIC TILENO3
         (mm)    (mm)    (mm)    (mm)    (mm)    (mm)    (mm)    (mm)    (mm)    (mm)   (t/ha)  ------------------(kg nutrient/ha)-------------------- (kg/ha)
    1  510.58  109.02  140.13   69.39  220.96    0.00    8.68   22.48   33.35  320.48   64.66    0.00    0.03    0.13    0.00    24.20    0.01    2.97    0.00
    2   99.29    5.65   81.67  117.72   37.97    0.00    6.21   24.99   44.05  208.01    2.86    0.00    0.01    0.08    0.00     0.12    0.00    0.01    0.00
    3  155.43   14.16   57.10  102.40   65.55    0.00    2.11   26.37   91.53  177.24    7.34    0.00    0.01    0.06    0.02     1.11    0.00    0.14    0.00
    4   78.50    1.73   22.44   70.53   29.87    0.00    5.93   15.87  116.93   98.15    1.65    0.06    0.35    5.55    1.78     0.03    0.00    0.00    0.00
    5  171.37   12.38   65.16   63.51   74.01    0.00    0.12   33.67  112.08  144.50    7.57    0.22    2.63   13.59    8.99     1.03    0.00    0.13    0.00
    6   13.11    0.00    8.90   48.46    1.94    0.00    0.01    8.45  167.69   60.48    0.00    0.00    0.24    0.00    0.05     0.00    0.00    0.00    0.00
    7    8.80    0.00    2.80   19.72    0.65    0.00    0.01    5.88  211.10   25.19    0.00    0.00    0.02    0.03    0.04     0.00    0.00    0.00    0.00
    8    5.03    0.00    0.68    2.07    0.20    0.00    3.59    0.17  194.88    4.80    0.00    0.00    0.01    0.05    0.02     0.00    0.00    0.00    0.00
    9   57.81    1.44   14.87    3.24   15.83    0.00    0.44   26.66  115.65   21.10    0.27    0.00    0.22    1.44    0.07     0.09    0.00    0.01    0.00
   10   82.72    6.48   27.53   12.89   37.11    0.00    0.21    9.74  124.19   48.28    1.55    0.01    0.09    0.44    0.03     0.22    0.00    0.03    0.00
   11   68.09   10.94   22.11   21.83   24.50    0.00    1.03   10.92   74.93   56.21    4.13    0.00    0.06    0.33    0.02     0.24    0.00    0.04    0.00
   12  566.50  118.73  125.27   49.49  245.14    0.00    8.65   14.97   26.61  294.97   35.88    0.01    0.04    0.27    0.01     7.10    0.01    0.90    0.00

 1996 1817.21  280.53  568.65  581.26  753.72    0.00    8.65  200.15 1312.99 1459.41  125.91    0.30    3.70   21.95   11.03    34.13    0.02    4.23    0.00
1
    SWAT Aug 6  VER 2025/Rev 699                                                    

    General Input/Output section (file.cio):                                        
    10/21/2025 12:00:00 AM ARCGIS-SWAT interface AV                                 
                                                                                    
Annual Summary for Watershed in year    8 of simulation

UNIT                                    PERCO    TILE                           WATER     SED     NO3     NO3     NO3     NO3        N       P       P
TIME     PREC    SURQ    LATQ     GWQ    LATE       Q     SW       ET     PET   YIELD   YIELD    SURQ    LATQ    PERC    CROP  ORGANIC SOLUBLE ORGANIC TILENO3
         (mm)    (mm)    (mm)    (mm)    (mm)    (mm)    (mm)    (mm)    (mm)    (mm)   (t/ha)  ------------------(kg nutrient/ha)-------------------- (kg/ha)
    1  224.15   24.22  122.18  126.45  104.88    0.00    3.40   20.49   45.50  276.36   10.77    0.00    0.02    0.10    0.00     3.14    0.00    0.39    0.00
    2    0.00    0.00   14.86   96.80    0.00    0.00    0.32    3.08   83.43  115.18    0.00    0.00    0.00    0.00    0.00     0.00    0.00    0.00    0.00
    3    5.68    0.00    1.48   56.68    0.00    0.00    2.75    2.79  143.84   61.66    0.00    0.00    0.01    0.00    0.38     0.00    0.00    0.00    0.00
    4  126.21   18.34   26.66   25.25   47.45    0.00    0.63   22.76  121.79   73.02   10.82    0.11    0.80    5.33    8.79     2.40    0.00    0.30    0.00
    5   41.29    0.07   22.46   29.40   13.21    0.00    0.82   15.91  133.05   54.47    0.01    0.00    0.33    0.52    1.30     0.00    0.00    0.00    0.00
    6   15.81    0.00    5.77   16.56    1.76    0.00    0.84   10.53  155.79   24.42    0.00    0.00    0.03    0.00    0.06     0.00    0.00    0.00    0.00
    7    0.43    0.00    0.86    2.06    0.00    0.00    0.00    1.27  201.45    4.64    0.00    0.00    0.00    0.00    0.03     0.00    0.00    0.00    0.00
    8    9.31    0.00    1.37    0.07    1.41    0.00    0.30    5.18  194.59    2.75    0.00    0.00    0.02    0.14    0.03     0.00    0.00    0.00    0.00
    9   39.78    0.08    5.33    0.20   11.30    0.00    4.31   12.25  144.52    6.57    0.01    0.00    0.09    1.07    0.04     0.00    0.00    0.00    0.00
   10   83.33    8.29   29.09    7.62   29.95    0.00    0.89   21.98  115.93   45.90    1.36    0.00    0.12    0.23    0.03     0.20    0.00    0.03    0.00
   11  351.72   55.42   92.69   38.04  149.38    0.00    4.63   25.98   41.63  187.36   16.72    0.00    0.04    0.26    0.01     3.98    0.00    0.50    0.00
   12  258.96   56.82   82.29   78.35  100.06    0.00    8.42   20.29   47.90  219.60   17.72    0.00    0.02    0.13    0.02     2.01    0.00    0.25    0.00

 1997 1156.67  163.23  405.03  477.49  459.40    0.00    8.42  162.51 1429.43 1071.95   57.41    0.12    1.50    7.77   10.70    11.73    0.01    1.47    0.00
1
    SWAT Aug 6  VER 2025/Rev 699                                                    

    General Input/Output section (file.cio):                                        
    10/21/2025 12:00:00 AM ARCGIS-SWAT interface AV                                 
                                                                                    
Annual Summary for Watershed in year    9 of simulation

UNIT                                    PERCO    TILE                           WATER     SED     NO3     NO3     NO3     NO3        N       P       P
TIME     PREC    SURQ    LATQ     GWQ    LATE       Q     SW       ET     PET   YIELD   YIELD    SURQ    LATQ    PERC    CROP  ORGANIC SOLUBLE ORGANIC TILENO3
         (mm)    (mm)    (mm)    (mm)    (mm)    (mm)    (mm)    (mm)    (mm)    (mm)   (t/ha)  ------------------(kg nutrient/ha)-------------------- (kg/ha)
    1   85.82   12.48   34.12   77.31   31.27    0.00    8.68   15.05   46.42  125.88    5.25    0.00    0.02    0.14    0.00     1.74    0.00    0.22    0.00
    2  196.63   51.72   69.07   69.36   81.74    0.00    1.04   12.29   65.33  193.66   29.40    0.00    0.01    0.03    0.00     9.31    0.00    1.15    0.00
    3   19.22    0.02    8.51   59.57    3.86    0.00    4.07    6.86  120.93   71.13    0.01    0.00    0.14    3.01    0.96     0.00    0.00    0.00    0.00
    4   45.01    1.33   14.91   31.51   12.71    0.00    0.52   20.82  109.44   50.26    0.88    0.00    1.11    4.92    7.74     0.04    0.00    0.00    0.00
    5   96.15    0.57   26.73   20.20   28.60    0.00    1.02   35.48  111.33   49.70    0.17    0.00    0.58    1.94    2.41     0.04    0.00    0.01    0.00
    6    6.38    0.00    8.46   15.76    0.54    0.00    0.00    5.45  193.72   26.05    0.00    0.00    0.05    0.00    0.06     0.00    0.00    0.00    0.00
    7    0.00    0.00    0.59    3.02    0.00    0.00    0.00    0.00  224.68    5.12    0.00    0.00    0.00    0.00    0.02     0.00    0.00    0.00    0.00
    8    0.30    0.00    0.06    0.07    0.00    0.00    0.00    0.30  223.52    1.29    0.00    0.00    0.00    0.00    0.01     0.00    0.00    0.00    0.00
    9   46.10    1.05   10.04    0.74   14.96    0.00    0.87   14.21  140.81   12.68    0.12    0.00    0.11    0.77    0.06     0.01    0.00    0.00    0.00
   10   13.09    0.03    7.75    5.04    1.90    0.00    0.06    8.65  112.45   13.59    0.00    0.00    0.06    0.03    0.03     0.00    0.00    0.00    0.00
   11    0.00    0.00    0.52    3.67    0.00    0.00    0.01    0.06   96.05    4.80    0.00    0.00    0.00    0.00    0.01     0.00    0.00    0.00    0.00
   12  109.49   11.03   17.07    4.34   43.41    0.00    8.68    9.90   55.34   32.56    3.42    0.01    0.10    0.92    0.03     0.63    0.00    0.08    0.00

 1998  618.18   78.22  197.82  290.59  218.99    0.00    8.68  129.07 1500.03  586.72   39.25    0.01    2.19   11.77   11.33    11.77    0.01    1.47    0.00
1
    SWAT Aug 6  VER 2025/Rev 699                                                    

    General Input/Output section (file.cio):                                        
    10/21/2025 12:00:00 AM ARCGIS-SWAT interface AV                                 
                                                                                    
Annual Summary for Watershed in year   10 of simulation

UNIT                                    PERCO    TILE                           WATER     SED     NO3     NO3     NO3     NO3        N       P       P
TIME     PREC    SURQ    LATQ     GWQ    LATE       Q     SW       ET     PET   YIELD   YIELD    SURQ    LATQ    PERC    CROP  ORGANIC SOLUBLE ORGANIC TILENO3
         (mm)    (mm)    (mm)    (mm)    (mm)    (mm)    (mm)    (mm)    (mm)    (mm)   (t/ha)  ------------------(kg nutrient/ha)-------------------- (kg/ha)
    1   89.20    7.94   38.13   16.46   37.78    0.00    3.32   19.05   52.75   63.69    4.15    0.00    0.03    0.11    0.00     1.31    0.00    0.17    0.00
    2   57.10    3.63   17.77   24.63   19.94    0.00    7.77   10.91   52.48   46.89    1.86    0.00    0.01    0.13    0.00     0.47    0.00    0.06    0.00
    3   52.69    0.31   21.83   26.20   13.64    0.00    2.47   28.27   95.65   49.40    0.19    0.00    0.02    0.06    0.00     0.03    0.00    0.00    0.00
    4    4.78    0.00    5.26   17.25    0.04    0.00    1.39    5.09  133.44   23.50    0.00    0.00    0.06    0.09    0.71     0.00    0.00    0.00    0.00
    5   16.38    0.01    4.64    5.40    3.13    0.00    0.01   10.60  153.19   10.92    0.00    0.00    0.81    3.69    6.78     0.00    0.00    0.00    0.00
    6    0.42    0.00    0.30    0.43    0.00    0.00    0.00    0.43  195.45    1.41    0.00    0.00    0.05    0.00    0.05     0.00    0.00    0.00    0.00
    7    0.00    0.00    0.03    0.00    0.00    0.00    0.00    0.00  216.97    0.57    0.00    0.00    0.00    0.00    0.01     0.00    0.00    0.00    0.00
    8    2.44    0.00    0.21    0.00    0.00    0.00    0.01    2.05  212.09    0.61    0.00    0.00    0.01    0.00    0.02     0.00    0.00    0.00    0.00
    9    7.72    0.00    1.67    0.00    1.53    0.00    0.17    3.80  153.95    1.96    0.00    0.00    0.13    0.77    0.05     0.00    0.00    0.00    0.00
   10   93.07    2.25   21.27    0.44   35.74    0.00    1.60   23.56   99.20   24.24    1.93    0.00    0.49    4.20    0.04     0.41    0.00    0.05    0.00
   11   72.96    4.71   26.05    9.08   29.09    0.00    2.10   13.87   65.12   40.31    3.46    0.00    0.11    0.20    0.02     0.90    0.00    0.11    0.00
   12   60.11    1.75   20.26   21.29   19.37    0.00    5.16   17.69   55.90   44.01    1.35    0.00    0.03    0.13    0.03     0.19    0.00    0.02    0.00

 1999  456.87   20.61  157.41  121.19  160.26    0.00    5.16  135.32 1486.20  307.50   12.94    0.00    1.76    9.38    7.72     3.30    0.00    0.40    0.00
1
    SWAT Aug 6  VER 2025/Rev 699                                                    

    General Input/Output section (file.cio):                                        
    10/21/2025 12:00:00 AM ARCGIS-SWAT interface AV                                 
                                                                                    
Annual Summary for Watershed in year   11 of simulation

UNIT                                    PERCO    TILE                           WATER     SED     NO3     NO3     NO3     NO3        N       P       P
TIME     PREC    SURQ    LATQ     GWQ    LATE       Q     SW       ET     PET   YIELD   YIELD    SURQ    LATQ    PERC    CROP  ORGANIC SOLUBLE ORGANIC TILENO3
         (mm)    (mm)    (mm)    (mm)    (mm)    (mm)    (mm)    (mm)    (mm)    (mm)   (t/ha)  ------------------(kg nutrient/ha)-------------------- (kg/ha)
    1   48.36    2.30   18.88   22.30   20.83    0.00    1.81   12.67   59.25   44.31    1.64    0.00    0.02    0.10    0.00     0.70    0.00    0.09    0.00
    2    0.00    0.00    2.98   16.89    0.00    0.00    0.12    1.68   92.39   20.68    0.00    0.00    0.00    0.00    0.00     0.00    0.00    0.00    0.00
    3    1.26    0.00    0.30    6.16    0.00    0.00    0.03    1.28  132.10    7.21    0.00    0.00    0.00    0.00    0.14     0.00    0.00    0.00    0.00
    4  184.30   20.79   44.40   15.61   68.69    0.00    8.49   29.48   78.80   81.58   16.58    0.41    1.75   13.27    8.52     5.89    0.00    0.72    0.00
    5   84.86    2.12   30.60   30.21   29.74    0.00    0.35   34.35  129.73   64.01    0.87    0.00    0.44    0.20    2.05     0.13    0.00    0.02    0.00
    6    0.00    0.00    8.11   25.46    0.00    0.00    0.00    0.35  208.52   34.70    0.00    0.00    0.03    0.00    0.05     0.00    0.00    0.00    0.00
    7    1.78    0.00    0.59    8.16    0.00    0.00    1.46    0.02  216.82    9.78    0.00    0.00    0.00    0.00    0.01     0.00    0.00    0.00    0.00
    8    0.62    0.00    0.33    0.23    0.00    0.00    0.00    2.07  217.68    1.38    0.00    0.00    0.01    0.00    0.02     0.00    0.00    0.00    0.00
    9   35.35    0.30    3.96    0.13    9.88    0.00    5.34    9.79  147.40    5.01    0.06    0.00    0.09    1.01    0.06     0.01    0.00    0.00    0.00
   10  106.27    6.43   29.61    5.18   41.56    0.00    5.42   21.15  101.83   41.80    2.67    0.00    0.17    0.67    0.02     1.63    0.00    0.20    0.00
   11   82.30    1.63   27.78   19.15   28.63    0.00    6.08   25.94   61.49   49.31    0.81    0.00    0.05    0.18    0.02     0.09    0.00    0.01    0.00
   12  323.54   83.03   60.30   30.54  129.70    0.00    6.59   16.67   40.62  174.85   32.58    0.00    0.03    0.15    0.01     9.83    0.01    1.23    0.00

 2000  868.66  116.60  227.85  180.01  329.03    0.00    6.59  155.46 1486.63  534.63   55.22    0.42    2.59   15.58   10.90    18.28    0.01    2.27    0.00
1
    SWAT Aug 6  VER 2025/Rev 699                                                    

    General Input/Output section (file.cio):                                        
    10/21/2025 12:00:00 AM ARCGIS-SWAT interface AV                                 
                                                                                    
Annual Summary for Watershed in year   12 of simulation

UNIT                                    PERCO    TILE                           WATER     SED     NO3     NO3     NO3     NO3        N       P       P
TIME     PREC    SURQ    LATQ     GWQ    LATE       Q     SW       ET     PET   YIELD   YIELD    SURQ    LATQ    PERC    CROP  ORGANIC SOLUBLE ORGANIC TILENO3
         (mm)    (mm)    (mm)    (mm)    (mm)    (mm)    (mm)    (mm)    (mm)    (mm)   (t/ha)  ------------------(kg nutrient/ha)-------------------- (kg/ha)
    1  298.15   90.71   97.12   76.61  107.32    0.00    5.99   18.60   33.56  266.39   67.42    0.00    0.02    0.12    0.00     8.55    0.00    1.06    0.00
    2   92.23    8.09   40.24   79.20   35.95    0.00    8.68   14.76   57.87  129.80    5.56    0.00    0.01    0.09    0.00     0.75    0.00    0.09    0.00
    3   81.04    3.72   40.92   71.77   33.20    0.00    2.45   22.96  124.81  119.53    2.10    0.00    0.03    0.41    0.16     0.16    0.00    0.02    0.00
    4    3.45    0.00    6.07   43.55    0.00    0.00    1.71    3.89  131.18   52.24    0.00    0.00    0.05    0.00    0.74     0.00    0.00    0.00    0.00
    5   45.14    0.21   10.85   21.12   13.86    0.00    0.09   20.15  137.71   34.44    0.13    0.00    0.82    5.07    7.26     0.01    0.00    0.00    0.00
    6    0.00    0.00    2.22    7.17    0.00    0.00    0.00    0.09  210.29   11.17    0.00    0.00    0.09    0.00    0.04     0.00    0.00    0.00    0.00
    7    0.35    0.00    0.19    0.50    0.00    0.00    0.01    0.34  229.11    2.10    0.00    0.00    0.01    0.00    0.01     0.00    0.00    0.00    0.00
    8    0.58    0.00    0.03    0.00    0.00    0.00    0.00    0.58  218.49    1.10    0.00    0.00    0.00    0.00    0.01     0.00    0.00    0.00    0.00
    9   26.45    1.04    4.30    0.01    8.15    0.00    0.87    8.52  150.43    6.13    0.42    0.00    0.16    1.59    0.05     0.03    0.00    0.00    0.00
   10   12.52    0.00    5.09    1.31    0.42    0.00    0.05   10.95  136.13    7.04    0.00    0.00    0.15    0.06    0.03     0.00    0.00    0.00    0.00
   11   13.24    0.00    2.61    1.64    1.39    0.00    0.24    9.06   70.79    4.75    0.00    0.00    0.04    0.13    0.01     0.00    0.00    0.00    0.00
   12  209.81   29.28   46.81    7.28   96.47    0.00    2.72   13.27   55.61   83.89   17.12    0.00    0.13    1.27    0.01     4.21    0.00    0.51    0.00

 2001  782.96  133.05  256.44  310.18  296.75    0.00    2.72  123.17 1556.00  718.59   92.74    0.01    1.49    8.76    8.32    13.70    0.01    1.69    0.00
1
    SWAT Aug 6  VER 2025/Rev 699                                                    

    General Input/Output section (file.cio):                                        
    10/21/2025 12:00:00 AM ARCGIS-SWAT interface AV                                 
                                                                                    
Annual Summary for Watershed in year   13 of simulation

UNIT                                    PERCO    TILE                           WATER     SED     NO3     NO3     NO3     NO3        N       P       P
TIME     PREC    SURQ    LATQ     GWQ    LATE       Q     SW       ET     PET   YIELD   YIELD    SURQ    LATQ    PERC    CROP  ORGANIC SOLUBLE ORGANIC TILENO3
         (mm)    (mm)    (mm)    (mm)    (mm)    (mm)    (mm)    (mm)    (mm)    (mm)   (t/ha)  ------------------(kg nutrient/ha)-------------------- (kg/ha)
    1    7.79    0.00   21.45   34.43    0.57    0.00    1.28    7.18   71.10   56.92    0.00    0.00    0.02    0.01    0.00     0.00    0.00    0.00    0.00
    2    7.40    0.00    2.42   22.99    0.38    0.00    1.26    5.99   70.73   26.41    0.00    0.00    0.01    0.02    0.00     0.00    0.00    0.00    0.00
    3  106.64    2.25   26.77   19.50   39.13    0.00    5.50   25.81   94.55   49.57    1.36    0.00    0.29    4.87    0.53     0.33    0.00    0.04    0.00
    4  197.24   20.75   66.09   38.80   87.68    0.00    0.21   27.28   97.56  126.96   16.39    0.24    2.49   14.10    7.93     5.86    0.00    0.72    0.00
    5   45.03    0.88   22.52   47.54   15.82    0.00    0.03   13.42  135.68   72.66    0.44    0.00    0.49    1.17    1.93     0.04    0.00    0.01    0.00
    6    1.46    0.00    2.20   25.06    0.00    0.00    0.20    1.21  183.03   28.85    0.00    0.00    0.04    0.00    0.03     0.00    0.00    0.00    0.00
    7    0.00    0.00    0.20    4.79    0.00    0.00    0.00    0.20  222.74    6.34    0.00    0.00    0.00    0.00    0.01     0.00    0.00    0.00    0.00
    8    0.28    0.00    0.04    0.17    0.00    0.00    0.00    0.28  199.86    1.24    0.00    0.00    0.00    0.00    0.01     0.00    0.00    0.00    0.00
    9    4.15    0.00    0.47    0.00    0.00    0.00    0.14    3.20  155.14    1.23    0.00    0.00    0.03    0.00    0.03     0.00    0.00    0.00    0.00
   10  122.41    8.65   35.06    6.80   47.69    0.00    0.64   24.56  117.21   51.23    3.24    0.02    0.34    2.33    0.07     1.13    0.00    0.14    0.00
   11  365.68   90.46   79.02   30.15  148.40    0.00    4.22   15.34   61.41  200.62   47.77    0.01    0.07    0.26    0.01     8.38    0.01    1.03    0.00
   12   87.62    2.26   48.74   70.21   32.87    0.00    4.28   22.91   56.81  123.11    1.64    0.00    0.02    0.12    0.02     0.03    0.00    0.00    0.00

 2002  945.71  125.24  304.98  300.45  372.54    0.00    4.28  147.38 1465.82  745.13   70.84    0.28    3.82   22.87   10.57    15.77    0.01    1.94    0.00
1
    SWAT Aug 6  VER 2025/Rev 699                                                    

    General Input/Output section (file.cio):                                        
    10/21/2025 12:00:00 AM ARCGIS-SWAT interface AV                                 
                                                                                    
Annual Summary for Watershed in year   14 of simulation

UNIT                                    PERCO    TILE                           WATER     SED     NO3     NO3     NO3     NO3        N       P       P
TIME     PREC    SURQ    LATQ     GWQ    LATE       Q     SW       ET     PET   YIELD   YIELD    SURQ    LATQ    PERC    CROP  ORGANIC SOLUBLE ORGANIC TILENO3
         (mm)    (mm)    (mm)    (mm)    (mm)    (mm)    (mm)    (mm)    (mm)    (mm)   (t/ha)  ------------------(kg nutrient/ha)-------------------- (kg/ha)
    1  157.58   18.71   58.23   68.03   69.13    0.00    4.54   15.97   47.82  147.30    8.26    0.00    0.02    0.10    0.00     2.70    0.00    0.33    0.00
    2  104.58    9.37   23.81   52.18   42.15    0.00    5.97   17.09   56.04   87.54    4.70    0.00    0.01    0.11    0.00     0.90    0.00    0.11    0.00
    3  113.89   14.25   34.25   47.00   42.86    0.00    4.47   22.53  105.47   98.02   11.31    0.00    0.04    0.77    0.06     1.63    0.00    0.20    0.00
    4  137.38    8.60   57.63   48.04   55.94    0.00    1.05   28.85   94.82  116.71    8.11    0.09    1.50   12.63    6.41     0.68    0.00    0.08    0.00
    5   20.85    0.12   17.56   47.72    4.47    0.00    0.01   11.54  163.52   67.91    0.10    0.00    0.72    1.09    3.66     0.00    0.00    0.00    0.00
    6    3.11    0.00    1.41   19.78    0.00    0.00    0.00    2.95  198.30   23.28    0.00    0.00    0.05    0.00    0.04     0.00    0.00    0.00    0.00
    7    0.04    0.00    0.15    2.46    0.00    0.00    0.00    0.04  225.54    4.33    0.00    0.00    0.00    0.00    0.02     0.00    0.00    0.00    0.00
    8    0.00    0.00    0.03    0.03    0.00    0.00    0.00    0.00  217.90    1.36    0.00    0.00    0.00    0.00    0.00     0.00    0.00    0.00    0.00
    9    0.03    0.00    0.01    0.00    0.00    0.00    0.00    0.03  167.53    0.96    0.00    0.00    0.00    0.00    0.00     0.00    0.00    0.00    0.00
   10  122.79    7.47   18.06    0.85   44.46    0.00    8.67   23.33   81.10   26.63    3.94    0.00    0.44    3.16    0.08     0.34    0.00    0.04    0.00
   11  172.41   14.62   58.71   18.63   73.77    0.00    8.52   23.59   61.68   93.35    8.15    0.00    0.13    0.18    0.01     1.85    0.00    0.22    0.00
   12  239.42   51.04   80.86   63.05   99.03    0.00    8.02   15.73   40.85  196.64   34.43    0.00    0.03    0.13    0.01     5.93    0.00    0.72    0.00

 2003 1072.09  124.18  350.71  367.78  431.80    0.00    8.02  161.65 1460.56  864.04   79.00    0.10    2.94   18.17   10.29    14.04    0.01    1.71    0.00
1
    SWAT Aug 6  VER 2025/Rev 699                                                    

    General Input/Output section (file.cio):                                        
    10/21/2025 12:00:00 AM ARCGIS-SWAT interface AV                                 
                                                                                    
Annual Summary for Watershed in year   15 of simulation

UNIT                                    PERCO    TILE                           WATER     SED     NO3     NO3     NO3     NO3        N       P       P
TIME     PREC    SURQ    LATQ     GWQ    LATE       Q     SW       ET     PET   YIELD   YIELD    SURQ    LATQ    PERC    CROP  ORGANIC SOLUBLE ORGANIC TILENO3
         (mm)    (mm)    (mm)    (mm)    (mm)    (mm)    (mm)    (mm)    (mm)    (mm)   (t/ha)  ------------------(kg nutrient/ha)-------------------- (kg/ha)
    1   15.55    0.14   16.45   61.09    3.49    0.00    4.96   10.76   61.14   79.82    0.10    0.00    0.01    0.03    0.00     0.02    0.00    0.00    0.00
    2   92.60    7.42   16.44   33.19   39.04    0.00    8.10   10.91   66.92   58.90    6.55    0.00    0.02    0.17    0.00     1.36    0.00    0.17    0.00
    3  108.92    5.66   37.09   33.99   44.55    0.00    7.54   21.42   94.97   78.66    4.69    0.02    0.14    3.12    0.17     0.54    0.00    0.07    0.00
    4   98.88    2.55   35.61   37.14   33.97    0.00    8.29   29.28   92.87   77.19    1.75    0.04    1.29    9.53    5.73     0.16    0.00    0.02    0.00
    5  175.90   16.05   68.22   51.92   76.07    0.00    0.44   30.40  116.29  138.39    9.75    0.15    1.09    2.58    4.12     2.38    0.00    0.29    0.00
    6    0.54    0.00    9.10   44.32    0.00    0.00    0.00    0.98  206.76   55.63    0.00    0.00    0.07    0.00    0.04     0.00    0.00    0.00    0.00
    7    0.61    0.00    0.70   15.70    0.00    0.00    0.00    0.57  238.83   18.35    0.00    0.00    0.01    0.00    0.02     0.00    0.00    0.00    0.00
    8    0.46    0.00    0.09    1.40    0.00    0.00    0.00    0.46  200.96    3.01    0.00    0.00    0.00    0.00    0.01     0.00    0.00    0.00    0.00
    9    1.63    0.00    0.06    0.05    0.00    0.00    0.00    1.59  165.47    1.23    0.00    0.00    0.00    0.00    0.02     0.00    0.00    0.00    0.00
   10  101.99    7.41    9.29    0.11   41.26    0.00    8.61   10.69  117.15   17.62    2.70    0.01    0.23    2.51    0.06     0.68    0.00    0.09    0.00
   11   44.53    0.32   28.36   12.68   14.01    0.00    8.63   16.19   74.02   42.28    0.24    0.00    0.21    0.15    0.01     0.02    0.00    0.00    0.00
   12   56.91    3.74   27.31   24.84   24.11    0.00    3.76   14.47   42.64   56.97    1.78    0.00    0.04    0.08    0.02     0.21    0.00    0.03    0.00

 2004  698.53   43.28  248.70  316.42  276.49    0.00    3.76  147.75 1478.01  628.03   27.55    0.22    3.09   18.16   10.19     5.36    0.00    0.67    0.00
1
    SWAT Aug 6  VER 2025/Rev 699                                                    

    General Input/Output section (file.cio):                                        
    10/21/2025 12:00:00 AM ARCGIS-SWAT interface AV                                 
                                                                                    
Annual Summary for Watershed in year   16 of simulation

UNIT                                    PERCO    TILE                           WATER     SED     NO3     NO3     NO3     NO3        N       P       P
TIME     PREC    SURQ    LATQ     GWQ    LATE       Q     SW       ET     PET   YIELD   YIELD    SURQ    LATQ    PERC    CROP  ORGANIC SOLUBLE ORGANIC TILENO3
         (mm)    (mm)    (mm)    (mm)    (mm)    (mm)    (mm)    (mm)    (mm)    (mm)   (t/ha)  ------------------(kg nutrient/ha)-------------------- (kg/ha)
    1    0.88    0.00    2.34   18.63    0.00    0.00    0.84    3.73   66.71   22.01    0.00    0.00    0.01    0.00    0.00     0.00    0.00    0.00    0.00
    2  113.10   10.40   12.71   10.42   43.51    0.00    8.68   14.55   53.64   33.45    8.87    0.00    0.04    0.34    0.00     1.93    0.00    0.24    0.00
    3   67.46    8.02   44.83   28.40   30.49    0.00    0.27   13.81  109.72   83.25    3.15    0.00    0.02    0.01    0.01     1.36    0.00    0.17    0.00
    4    2.10    0.00    2.99   23.74    0.00    0.00    0.02    2.13  139.06   27.87    0.00    0.00    0.01    0.00    0.45     0.00    0.00    0.00    0.00
    5    1.82    0.00    0.27    6.18    0.00    0.00    0.05    1.78  167.50    7.44    0.00    0.00    0.00    0.00    0.42     0.00    0.00    0.00    0.00
    6   10.10    0.00    1.91    0.44    2.53    0.00    0.13    4.70  203.71    3.12    0.00    0.00    0.27    1.90    0.07     0.00    0.00    0.00    0.00
    7    0.00    0.00    0.87    0.28    0.00    0.00    0.00    0.13  237.73    1.78    0.00    0.00    0.12    0.00    0.02     0.00    0.00    0.00    0.00
    8    1.52    0.00    0.13    0.00    0.00    0.00    0.00    1.44  217.85    0.60    0.00    0.00    0.02    0.00    0.02     0.00    0.00    0.00    0.00
    9   11.68    0.00    1.51    0.00    0.23    0.00    0.04    9.61  143.99    1.85    0.00    0.00    0.10    0.12    0.05     0.00    0.00    0.00    0.00
   10   77.08    0.28   16.64    0.38   24.14    0.00    5.45   23.73  111.55   17.61    0.17    0.00    0.50    4.13    0.02     0.03    0.00    0.00    0.00
   11  119.99    9.92   31.79    8.10   48.32    0.00    6.38   20.84   65.03   50.24    7.72    0.00    0.09    0.12    0.01     1.01    0.00    0.12    0.00
   12   51.08    2.52   22.89   22.41   18.13    0.00    4.60   15.50   57.71   48.57    1.84    0.00    0.01    0.04    0.01     0.16    0.00    0.02    0.00

 2005  456.81   31.14  138.87  118.99  167.35    0.00    4.60  111.96 1574.18  297.79   21.75    0.00    1.17    6.68    1.08     4.49    0.00    0.56    0.00
1
    SWAT Aug 6  VER 2025/Rev 699                                                    

    General Input/Output section (file.cio):                                        
    10/21/2025 12:00:00 AM ARCGIS-SWAT interface AV                                 
                                                                                    
Annual Summary for Watershed in year   17 of simulation

UNIT                                    PERCO    TILE                           WATER     SED     NO3     NO3     NO3     NO3        N       P       P
TIME     PREC    SURQ    LATQ     GWQ    LATE       Q     SW       ET     PET   YIELD   YIELD    SURQ    LATQ    PERC    CROP  ORGANIC SOLUBLE ORGANIC TILENO3
         (mm)    (mm)    (mm)    (mm)    (mm)    (mm)    (mm)    (mm)    (mm)    (mm)   (t/ha)  ------------------(kg nutrient/ha)-------------------- (kg/ha)
    1  154.22   13.41   37.76   27.93   66.63    0.00    7.43   16.80   43.57   79.88   12.13    0.00    0.01    0.08    0.00     2.77    0.00    0.34    0.00
    2  179.19   18.71   55.69   40.60   80.41    0.00    8.66   18.33   43.55  116.38   18.60    0.00    0.01    0.06    0.00     3.51    0.00    0.43    0.00
    3  145.02   20.13   63.90   61.71   60.64    0.00    1.49   22.87  103.72  147.65   12.65    0.00    0.01    0.04    0.00     3.08    0.00    0.38    0.00
    4   32.34    0.41   19.64   55.64    8.66    0.00    2.06   12.49  126.29   77.83    0.42    0.00    0.38    3.86    4.22     0.12    0.00    0.01    0.00
    5   17.20    0.00    9.18   34.56    2.70    0.00    2.87    9.44  157.34   45.79    0.00    0.00    0.64    1.54    3.85     0.00    0.00    0.00    0.00
    6   11.46    0.00    2.97   10.06    2.17    0.00    0.04    9.23  176.40   14.67    0.00    0.00    0.07    0.12    0.41     0.00    0.00    0.00    0.00
    7    4.03    0.00    1.65    0.87    0.01    0.00    0.00    3.19  225.13    3.85    0.00    0.00    0.02    0.00    0.03     0.00    0.00    0.00    0.00
    8    1.27    0.00    0.24    0.01    0.00    0.00    0.00    1.18  212.80    1.26    0.00    0.00    0.01    0.00    0.02     0.00    0.00    0.00    0.00
    9   12.48    0.00    1.93    0.00    0.88    0.00    0.22    8.86  156.18    2.66    0.00    0.00    0.11    0.51    0.05     0.00    0.00    0.00    0.00
   10   28.11    0.01    4.65    0.01    6.71    0.00    1.43   12.00  132.56    5.25    0.01    0.00    0.19    2.06    0.02     0.00    0.00    0.00    0.00
   11  112.43   17.95   25.83    2.78   37.56    0.00    3.53   19.92   78.39   47.07   14.08    0.00    0.18    0.55    0.01     0.98    0.00    0.11    0.00
   12   28.67    0.00   18.22   14.20    5.31    0.00    1.63   18.69   57.02   33.10    0.00    0.00    0.03    0.09    0.03     0.00    0.00    0.00    0.00

 2006  726.42   70.64  241.67  248.36  271.68    0.00    1.63  153.01 1512.95  575.41   57.88    0.01    1.66    8.92    8.66    10.46    0.00    1.28    0.00
1
    SWAT Aug 6  VER 2025/Rev 699                                                    

    General Input/Output section (file.cio):                                        
    10/21/2025 12:00:00 AM ARCGIS-SWAT interface AV                                 
                                                                                    
Annual Summary for Watershed in year   18 of simulation

UNIT                                    PERCO    TILE                           WATER     SED     NO3     NO3     NO3     NO3        N       P       P
TIME     PREC    SURQ    LATQ     GWQ    LATE       Q     SW       ET     PET   YIELD   YIELD    SURQ    LATQ    PERC    CROP  ORGANIC SOLUBLE ORGANIC TILENO3
         (mm)    (mm)    (mm)    (mm)    (mm)    (mm)    (mm)    (mm)    (mm)    (mm)   (t/ha)  ------------------(kg nutrient/ha)-------------------- (kg/ha)
    1   37.65    0.35    6.35   11.31   12.95    0.00    5.43    8.34   62.29   18.69    0.29    0.00    0.02    0.21    0.00     0.04    0.00    0.00    0.00
    2   84.31   12.74   25.94   13.93   28.02    0.00    4.40   20.52   50.26   53.26   13.32    0.00    0.02    0.10    0.00     2.30    0.00    0.28    0.00
    3   74.03   12.59   12.51   17.42   26.43    0.00    6.92   11.01  105.71   43.29   13.60    0.02    0.10    1.69    0.08     2.26    0.00    0.28    0.00
    4  113.94    2.81   43.39   25.76   44.73    0.00    0.81   34.04   97.61   72.91    2.00    0.01    1.07    7.64    6.08     0.16    0.00    0.02    0.00
    5   42.82    0.98   18.28   31.71   10.19    0.00    0.57   20.43  133.86   52.15    0.68    0.01    0.41    0.55    2.94     0.02    0.00    0.00    0.00
    6    0.00    0.00    2.53   15.37    0.00    0.00    0.00    0.57  177.80   18.99    0.00    0.00    0.03    0.00    0.04     0.00    0.00    0.00    0.00
    7    0.00    0.00    0.21    1.71    0.00    0.00    0.00    0.00  221.37    2.84    0.00    0.00    0.00    0.00    0.02     0.00    0.00    0.00    0.00
    8    2.38    0.00    0.08    0.02    0.00    0.00    0.36    1.94  208.17    0.81    0.00    0.00    0.00    0.00    0.03     0.00    0.00    0.00    0.00
    9   16.12    0.00    3.19    0.01    1.40    0.00    0.07   11.32  152.32    3.73    0.00    0.00    0.12    0.32    0.06     0.00    0.00    0.00    0.00
   10   30.74    0.00    6.19    0.11    3.98    0.00    1.56   17.56  118.03    6.72    0.00    0.00    0.12    0.65    0.03     0.00    0.00    0.00    0.00
   11   97.93   14.04   20.81    1.82   40.60    0.00    4.13    8.25   76.09   37.03    7.19    0.00    0.10    1.18    0.01     0.85    0.00    0.11    0.00
   12   58.34    3.97   25.11   14.14   22.87    0.00    4.17   11.45   57.06   43.79    1.80    0.00    0.05    0.12    0.01     0.64    0.00    0.08    0.00

 2007  558.26   47.49  164.59  133.30  191.17    0.00    4.17  145.43 1460.58  354.21   38.89    0.04    2.04   12.45    9.31     6.27    0.00    0.78    0.00
1
    SWAT Aug 6  VER 2025/Rev 699                                                    

    General Input/Output section (file.cio):                                        
    10/21/2025 12:00:00 AM ARCGIS-SWAT interface AV                                 
                                                                                    
Annual Summary for Watershed in year   19 of simulation

UNIT                                    PERCO    TILE                           WATER     SED     NO3     NO3     NO3     NO3        N       P       P
TIME     PREC    SURQ    LATQ     GWQ    LATE       Q     SW       ET     PET   YIELD   YIELD    SURQ    LATQ    PERC    CROP  ORGANIC SOLUBLE ORGANIC TILENO3
         (mm)    (mm)    (mm)    (mm)    (mm)    (mm)    (mm)    (mm)    (mm)    (mm)   (t/ha)  ------------------(kg nutrient/ha)-------------------- (kg/ha)
    1  126.99   21.50   45.00   34.69   51.59    0.00    1.93   15.81   60.90  102.16   14.78    0.00    0.02    0.09    0.00     5.32    0.00    0.66    0.00
    2   66.69    0.83   17.94   29.74   27.20    0.00    3.80   13.25   64.62   49.60    0.39    0.00    0.02    0.15    0.00     0.06    0.00    0.01    0.00
    3   19.66    0.00   12.07   26.29    3.04    0.00    1.86   13.60  118.10   39.56    0.00    0.00    0.06    0.19    0.23     0.00    0.00    0.00    0.00
    4   98.51    2.22   27.87   19.69   36.06    0.00    0.32   28.42  126.53   50.89    1.27    0.07    1.24    8.86    7.93     0.13    0.00    0.02    0.00
    5   49.54    0.08   15.11   19.54    7.19    0.00    1.68   28.88  110.63   35.89    0.02    0.00    0.31    0.04    0.94     0.00    0.00    0.00    0.00
    6    0.00    0.00    4.48    8.67    0.00    0.00    0.00    1.68  197.18   14.15    0.00    0.00    0.02    0.00    0.06     0.00    0.00    0.00    0.00
    7    0.00    0.00    0.31    1.02    0.00    0.00    0.00    0.00  220.85    2.17    0.00    0.00    0.00    0.00    0.02     0.00    0.00    0.00    0.00
    8    0.00    0.00    0.03    0.02    0.00    0.00    0.00    0.00  216.34    0.70    0.00    0.00    0.00    0.00    0.00     0.00    0.00    0.00    0.00
    9   56.71    0.07    7.11    0.05   15.01    0.00    3.33   22.49  124.65    7.71    0.00    0.00    0.09    0.80    0.07     0.00    0.00    0.00    0.00
   10  107.34    0.40   25.71    5.08   38.89    0.00    8.07   27.49  104.76   31.67    0.12    0.00    0.08    0.29    0.03     0.03    0.00    0.00    0.00
   11  209.23   35.81   60.76   31.83   90.70    0.00    8.62   14.01   58.42  128.79   14.44    0.00    0.02    0.13    0.01     3.30    0.00    0.43    0.00
   12  190.87   19.32   68.55   57.12   85.96    0.00    8.37   18.76   39.46  147.00    7.46    0.00    0.02    0.09    0.02     1.89    0.00    0.24    0.00

 2008  925.54   80.23  284.94  233.74  355.65    0.00    8.37  184.40 1442.43  610.30   38.48    0.07    1.90   10.63    9.31    10.72    0.00    1.35    0.00
1
    SWAT Aug 6  VER 2025/Rev 699                                                    

    General Input/Output section (file.cio):                                        
    10/21/2025 12:00:00 AM ARCGIS-SWAT interface AV                                 
                                                                                    
Annual Summary for Watershed in year   20 of simulation

UNIT                                    PERCO    TILE                           WATER     SED     NO3     NO3     NO3     NO3        N       P       P
TIME     PREC    SURQ    LATQ     GWQ    LATE       Q     SW       ET     PET   YIELD   YIELD    SURQ    LATQ    PERC    CROP  ORGANIC SOLUBLE ORGANIC TILENO3
         (mm)    (mm)    (mm)    (mm)    (mm)    (mm)    (mm)    (mm)    (mm)    (mm)   (t/ha)  ------------------(kg nutrient/ha)-------------------- (kg/ha)
    1  152.78    6.15   63.60   71.41   71.31    0.00    8.36   19.73   33.95  143.43    3.31    0.00    0.02    0.11    0.00     1.26    0.00    0.16    0.00
    2  186.55   21.21   68.05   76.46   90.48    0.00    8.68   10.66   54.11  168.24    8.73    0.00    0.01    0.07    0.00     4.52    0.00    0.56    0.00
    3   99.45    8.28   35.15   75.10   41.64    0.00    8.03   16.66  103.85  121.63    5.37    0.00    0.02    0.39    0.03     1.63    0.00    0.20    0.00
    4   36.60    0.00   15.34   47.12    6.32    0.00    2.83   26.66   96.42   65.27    0.00    0.00    0.53    4.71    3.46     0.00    0.00    0.00    0.00
    5    4.05    0.00    4.35   25.01    0.00    0.00    0.04    6.54  145.10   31.78    0.00    0.00    0.30    0.00    3.54     0.00    0.00    0.00    0.00
    6    8.41    0.00    1.33    2.56    0.00    0.00    0.00    7.12  187.79    5.73    0.00    0.00    0.06    0.00    0.04     0.00    0.00    0.00    0.00
    7    0.00    0.00    0.33    0.02    0.00    0.00    0.00    0.00  222.46    1.80    0.00    0.00    0.01    0.00    0.02     0.00    0.00    0.00    0.00
    8    0.00    0.00    0.03    0.00    0.00    0.00    0.00    0.00  212.62    1.11    0.00    0.00    0.00    0.00    0.00     0.00    0.00    0.00    0.00
    9   41.52    0.17    8.32    0.23   13.06    0.00    0.83   16.80  132.03    9.51    0.07    0.00    0.31    2.58    0.06     0.03    0.00    0.00    0.00
   10   13.76    0.03    4.08    2.31    2.44    0.00    0.47    8.61  134.67    7.12    0.01    0.00    0.09    0.16    0.03     0.00    0.00    0.00    0.00
   11   30.32    0.03    2.93    2.38    9.76    0.00    5.49    6.07  102.27    5.89    0.02    0.00    0.04    0.79    0.01     0.00    0.00    0.00    0.00
   12  333.84   48.26   71.17   13.41  152.83    0.00    8.68   22.00   45.53  133.27   30.69    0.00    0.10    0.27    0.01     7.95    0.00    0.96    0.00

 2009  907.28   84.14  274.68  316.01  387.84    0.00    8.68  140.84 1470.79  694.79   48.21    0.01    1.50    9.07    7.21    15.40    0.01    1.88    0.00
1
    SWAT Aug 6  VER 2025/Rev 699                                                    

    General Input/Output section (file.cio):                                        
    10/21/2025 12:00:00 AM ARCGIS-SWAT interface AV                                 
                                                                                    
Annual Summary for Watershed in year   21 of simulation

UNIT                                    PERCO    TILE                           WATER     SED     NO3     NO3     NO3     NO3        N       P       P
TIME     PREC    SURQ    LATQ     GWQ    LATE       Q     SW       ET     PET   YIELD   YIELD    SURQ    LATQ    PERC    CROP  ORGANIC SOLUBLE ORGANIC TILENO3
         (mm)    (mm)    (mm)    (mm)    (mm)    (mm)    (mm)    (mm)    (mm)    (mm)   (t/ha)  ------------------(kg nutrient/ha)-------------------- (kg/ha)
    1  304.54   44.03  122.77   88.79  141.23    0.00    6.29   20.30   38.89  257.75   35.21    0.00    0.02    0.09    0.00     9.82    0.00    1.21    0.00
    2  299.24   24.87   89.33  102.31  147.62    0.00    8.68   19.86   35.41  219.30   19.36    0.00    0.01    0.08    0.00     3.77    0.00    0.46    0.00
    3  232.19   41.94  101.81  138.22  102.04    0.00    1.43   21.26   82.49  286.21   38.93    0.00    0.01    0.03    0.03     4.75    0.00    0.59    0.00
    4   81.91   22.99   24.55   99.22   17.21    0.00    0.93   21.54  118.08  151.11   17.18    0.00    0.67    4.01    7.25     3.83    0.00    0.47    0.00
    5   11.99    0.00    7.34   55.98    0.14    0.00    0.11   10.75  141.42   67.27    0.00    0.00    0.25    0.01    1.64     0.00    0.00    0.00    0.00
    6    4.72    0.00    1.69   21.35    0.03    0.00    0.00    3.89  167.54   26.09    0.00    0.00    0.02    0.00    0.03     0.00    0.00    0.00    0.00
    7    2.47    0.00    0.39    1.02    0.00    0.00    0.00    2.28  227.14    3.83    0.00    0.00    0.00    0.00    0.03     0.00    0.00    0.00    0.00
    8   17.03    0.00    3.81    0.12    3.66    0.00    0.05    8.33  206.51    5.74    0.00    0.00    0.07    0.36    0.03     0.00    0.00    0.00    0.00
    9    7.15    0.00    1.79    0.75    0.00    0.00    0.04    6.34  152.15    3.87    0.00    0.00    0.05    0.00    0.04     0.00    0.00    0.00    0.00
   10  192.08   31.06   44.86   11.76   77.29    0.00    8.62   15.78  109.60   88.74   19.18    0.02    0.21    1.75    0.02     2.05    0.00    0.25    0.00
   11  274.32   88.51   38.05   30.85   89.50    0.00    8.68   27.64   70.92  155.74   49.07    0.00    0.05    0.15    0.01     5.61    0.01    0.69    0.00
   12  180.41   26.28   82.89   59.73   76.53    0.00    7.29   20.73   51.74  174.12   10.21    0.00    0.02    0.07    0.01     0.78    0.00    0.10    0.00

 2010 1608.04  279.70  519.28  610.09  655.26    0.00    7.29  178.71 1401.89 1439.78  189.14    0.02    1.38    6.56    9.11    30.60    0.02    3.77    0.00
1
    SWAT Aug 6  VER 2025/Rev 699                                                    

    General Input/Output section (file.cio):                                        
    10/21/2025 12:00:00 AM ARCGIS-SWAT interface AV                                 
                                                                                    
Annual Summary for Watershed in year   22 of simulation

UNIT                                    PERCO    TILE                           WATER     SED     NO3     NO3     NO3     NO3        N       P       P
TIME     PREC    SURQ    LATQ     GWQ    LATE       Q     SW       ET     PET   YIELD   YIELD    SURQ    LATQ    PERC    CROP  ORGANIC SOLUBLE ORGANIC TILENO3
         (mm)    (mm)    (mm)    (mm)    (mm)    (mm)    (mm)    (mm)    (mm)    (mm)   (t/ha)  ------------------(kg nutrient/ha)-------------------- (kg/ha)
    1  131.73   22.33   33.85   64.87   52.52    0.00    8.68   13.77   53.41  123.41   20.24    0.00    0.01    0.11    0.00     2.80    0.00    0.35    0.00
    2  109.15   18.02   50.45   54.77   42.90    0.00    3.10   19.85   63.10  125.61   19.39    0.00    0.01    0.05    0.00     1.45    0.00    0.18    0.00
    3   91.39    3.74   36.65   56.85   38.29    0.00    0.72   20.40  105.53   99.91    3.13    0.00    0.01    0.06    0.15     0.13    0.00    0.02    0.00
    4   90.66    2.34   16.42   41.02   32.86    0.00    7.31   19.72  127.63   62.21    1.27    0.00    0.39    3.44    8.10     0.05    0.00    0.01    0.00
    5   95.83    9.11   41.87   42.01   31.67    0.00    0.68   33.10  135.70   95.44    5.23    0.00    0.30    0.16    0.48     0.21    0.00    0.03    0.00
    6   34.01    0.17   15.34   29.40   11.85    0.00    0.20   11.81  175.78   47.08    0.01    0.00    0.02    0.00    0.05     0.00    0.00    0.00    0.00
    7    0.59    0.00    1.41    8.44    0.00    0.00    0.00    0.79  210.66   11.72    0.00    0.00    0.00    0.00    0.03     0.00    0.00    0.00    0.00
    8    4.47    0.00    0.57    0.50    0.03    0.00    0.03    3.83  215.96    2.53    0.00    0.00    0.01    0.00    0.03     0.00    0.00    0.00    0.00
    9    5.54    0.00    1.15    0.12    0.56    0.00    0.00    3.95  169.60    2.34    0.00    0.00    0.02    0.06    0.03     0.00    0.00    0.00    0.00
   10   53.46    1.63    7.79    0.09   19.29    0.00    2.38   12.35  136.48   10.34    0.54    0.00    0.07    0.96    0.01     0.06    0.00    0.01    0.00
   11  203.37   29.03   65.22   23.06   83.17    0.00    3.44   24.23   61.25  118.32    9.97    0.00    0.08    0.13    0.00     1.21    0.00    0.16    0.00
   12   11.73    0.00   11.46   35.33    0.30    0.00    0.92   12.19   64.66   48.13    0.00    0.00    0.01    0.00    0.01     0.00    0.00    0.00    0.00

 2011  831.93   86.37  282.18  356.46  313.42    0.00    0.92  176.00 1519.75  747.03   59.78    0.01    0.92    4.97    8.90     5.91    0.00    0.74    0.00
1
    SWAT Aug 6  VER 2025/Rev 699                                                    

    General Input/Output section (file.cio):                                        
    10/21/2025 12:00:00 AM ARCGIS-SWAT interface AV                                 
                                                                                    
Annual Summary for Watershed in year   23 of simulation

UNIT                                    PERCO    TILE                           WATER     SED     NO3     NO3     NO3     NO3        N       P       P
TIME     PREC    SURQ    LATQ     GWQ    LATE       Q     SW       ET     PET   YIELD   YIELD    SURQ    LATQ    PERC    CROP  ORGANIC SOLUBLE ORGANIC TILENO3
         (mm)    (mm)    (mm)    (mm)    (mm)    (mm)    (mm)    (mm)    (mm)    (mm)   (t/ha)  ------------------(kg nutrient/ha)-------------------- (kg/ha)
    1   76.71   12.05   18.18   23.30   26.68    0.00    4.90   10.58   51.52   54.80    7.84    0.00    0.02    0.17    0.00     1.18    0.00    0.15    0.00
    2   13.21    0.02    9.35   19.38    3.52    0.00    0.90    9.83   67.30   29.90    0.01    0.00    0.01    0.01    0.00     0.00    0.00    0.00    0.00
    3   14.47    0.00    1.43    9.09    0.24    0.00    5.66    7.22  123.76   11.56    0.00    0.00    0.04    0.25    0.15     0.00    0.00    0.00    0.00
    4  124.48    4.00   28.73    9.16   48.84    0.00    8.54   25.80   86.23   42.76    1.88    0.09    1.45   11.00    7.35     0.18    0.00    0.02    0.00
    5   14.68    0.00   17.11   19.72    1.97    0.00    0.06   17.83  169.48   37.85    0.00    0.00    0.34    0.00    1.61     0.00    0.00    0.00    0.00
    6    1.24    0.00    1.90    9.71    0.00    0.00    0.00    1.27  198.82   12.49    0.00    0.00    0.03    0.00    0.03     0.00    0.00    0.00    0.00
    7    0.13    0.00    0.17    1.13    0.00    0.00    0.00    0.13  221.47    2.05    0.00    0.00    0.00    0.00    0.02     0.00    0.00    0.00    0.00
    8    0.00    0.00    0.02    0.01    0.00    0.00    0.00    0.00  214.70    0.61    0.00    0.00    0.00    0.00    0.00     0.00    0.00    0.00    0.00
    9  113.20   13.17    9.87    0.03   47.55    0.00    4.81    7.56  150.00   23.30    5.07    0.04    0.09    1.85    0.01     1.29    0.00    0.16    0.00
   10  211.30   40.03   46.55   12.55   82.46    0.00    8.60   20.86  105.74   98.84   22.93    0.00    0.23    0.29    0.03     3.76    0.00    0.47    0.00
   11  191.82   20.40   83.31   53.32   82.83    0.00    8.66   25.72   61.36  158.01   12.45    0.00    0.04    0.13    0.00     1.62    0.00    0.20    0.00
   12   38.67    0.31   35.56   66.98   13.63    0.00    4.82   16.57   60.18  106.25    0.15    0.00    0.01    0.03    0.03     0.12    0.00    0.02    0.00

 2012  799.92   89.98  252.19  224.38  307.73    0.00    4.82  143.37 1510.57  578.41   50.33    0.13    2.27   13.74    9.23     8.16    0.00    1.02    0.00
1
    SWAT Aug 6  VER 2025/Rev 699                                                    

    General Input/Output section (file.cio):                                        
    10/21/2025 12:00:00 AM ARCGIS-SWAT interface AV                                 
                                                                                    
Annual Summary for Watershed in year   24 of simulation

UNIT                                    PERCO    TILE                           WATER     SED     NO3     NO3     NO3     NO3        N       P       P
TIME     PREC    SURQ    LATQ     GWQ    LATE       Q     SW       ET     PET   YIELD   YIELD    SURQ    LATQ    PERC    CROP  ORGANIC SOLUBLE ORGANIC TILENO3
         (mm)    (mm)    (mm)    (mm)    (mm)    (mm)    (mm)    (mm)    (mm)    (mm)   (t/ha)  ------------------(kg nutrient/ha)-------------------- (kg/ha)
    1  205.69   37.40   46.02   48.37   85.56    0.00    4.17   17.59   42.33  133.87   23.84    0.00    0.02    0.14    0.00     3.81    0.00    0.47    0.00
    2   99.41    7.22   39.91   51.01   37.51    0.00    8.03   17.87   51.64  100.25    6.12    0.00    0.01    0.09    0.00     0.47    0.00    0.06    0.00
    3  475.32   67.49  131.54   81.91  209.50    0.00    8.67   37.91   63.91  283.61   69.99    0.01    0.09    2.28    0.12     5.54    0.00    0.69    0.00
    4   87.29    7.91   66.71  110.55   36.59    0.00    4.17   17.82  125.57  189.09    5.88    0.09    1.09    7.45    3.59     0.13    0.00    0.02    0.00
    5   36.11    0.07   13.33   74.86    4.58    0.00    0.37   26.81  131.06   92.05    0.01    0.00    0.38    0.06    4.93     0.00    0.00    0.00    0.00
    6    0.00    0.00    2.44   32.57    0.00    0.00    0.00    0.37  187.62   38.09    0.00    0.00    0.03    0.00    0.04     0.00    0.00    0.00    0.00
    7    0.00    0.00    0.22    5.37    0.00    0.00    0.00    0.00  235.90    8.08    0.00    0.00    0.00    0.00    0.01     0.00    0.00    0.00    0.00
    8    0.00    0.00    0.04    0.16    0.00    0.00    0.00    0.00  225.12    2.08    0.00    0.00    0.00    0.00    0.00     0.00    0.00    0.00    0.00
    9   50.55    0.03    8.71    0.21   14.24    0.00    2.33   19.67  151.28   10.33    0.01    0.00    0.15    1.19    0.09     0.00    0.00    0.00    0.00
   10    5.41    0.00    5.56    2.85    0.00    0.00    0.47    6.60  134.10    9.56    0.00    0.00    0.07    0.00    0.03     0.00    0.00    0.00    0.00
   11   96.36    9.81   19.80    4.01   41.08    0.00    2.26   11.27   82.07   34.52    5.93    0.00    0.07    0.68    0.00     0.78    0.00    0.10    0.00
   12   84.28    6.15   26.54   17.92   34.12    0.00    5.70   11.60   64.68   51.60    4.46    0.00    0.04    0.13    0.01     0.12    0.00    0.02    0.00

 2013 1140.43  136.08  360.83  429.78  463.19    0.00    5.70  167.51 1495.27  953.14  116.24    0.10    1.93   12.02    8.81    10.85    0.01    1.35    0.00
1
    SWAT Aug 6  VER 2025/Rev 699                                                    

    General Input/Output section (file.cio):                                        
    10/21/2025 12:00:00 AM ARCGIS-SWAT interface AV                                 
                                                                                    
Annual Summary for Watershed in year   25 of simulation

UNIT                                    PERCO    TILE                           WATER     SED     NO3     NO3     NO3     NO3        N       P       P
TIME     PREC    SURQ    LATQ     GWQ    LATE       Q     SW       ET     PET   YIELD   YIELD    SURQ    LATQ    PERC    CROP  ORGANIC SOLUBLE ORGANIC TILENO3
         (mm)    (mm)    (mm)    (mm)    (mm)    (mm)    (mm)    (mm)    (mm)    (mm)   (t/ha)  ------------------(kg nutrient/ha)-------------------- (kg/ha)
    1  182.20   30.18   49.34   31.65   72.86    0.00    8.68   19.77   50.30  112.30   28.99    0.00    0.02    0.15    0.00     4.59    0.00    0.57    0.00
    2   92.75    2.27   46.38   46.95   35.39    0.00    6.67   25.58   51.18   97.17    1.49    0.00    0.01    0.05    0.00     0.04    0.00    0.01    0.00
    3   61.04    2.18   22.98   47.27   23.49    0.00    4.65   15.53  105.71   74.31    2.01    0.00    0.06    1.21    0.16     0.04    0.00    0.01    0.00
    4   86.41    4.52   33.14   37.91   35.87    0.00    0.46   19.42  144.16   77.39    3.27    0.02    1.00    6.66    6.15     0.18    0.00    0.02    0.00
    5    1.95    0.00    4.28   23.17    0.00    0.00    0.00    2.21  165.41   29.19    0.00    0.00    0.25    0.00    0.20     0.00    0.00    0.00    0.00
    6   12.42    0.00    3.18    5.82    1.32    0.00    0.00    8.00  183.36   10.38    0.00    0.00    0.15    0.42    0.13     0.00    0.00    0.00    0.00
    7    0.26    0.00    0.30    0.17    0.00    0.00    0.00    0.26  221.72    1.57    0.00    0.00    0.01    0.00    0.03     0.00    0.00    0.00    0.00

 2014  437.03   39.15  159.60  192.93  168.92    0.00    0.00   90.78  921.83  402.31   35.76    0.02    1.51    8.50    6.67     4.86    0.00    0.60    0.00
1
    SWAT Aug 6  VER 2025/Rev 699                                                    

    General Input/Output section (file.cio):                                        
    10/21/2025 12:00:00 AM ARCGIS-SWAT interface AV                                 
                                                                                    
    FINAL VALUES

1
    SWAT Aug 6  VER 2025/Rev 699                                                    

    General Input/Output section (file.cio):                                        
    10/21/2025 12:00:00 AM ARCGIS-SWAT interface AV                                 
                                                                                    
                                            Average Plant Values (kg/ha)

  HRU       1 SUB   1 AGRC  Yld =   505.5 BIOM =   1636.2
  HRU       2 SUB   1 AGRC  Yld =   507.1 BIOM =   1641.2
  HRU       3 SUB   1 AGRC  Yld =   464.5 BIOM =   1503.5
  HRU       4 SUB   1 AGRC  Yld =   477.6 BIOM =   1546.0
  HRU       5 SUB   1 FRSE  Yld =   180.3 BIOM =    617.2
  HRU       6 SUB   1 FRSE  Yld =   176.4 BIOM =    604.1
  HRU       7 SUB   1 FRSE  Yld =   175.3 BIOM =    600.1
  HRU       8 SUB   1 FRSE  Yld =   110.0 BIOM =    375.9
  HRU       9 SUB   1 FRSE  Yld =   107.0 BIOM =    365.4
  HRU      10 SUB   2 AGRC  Yld =   598.4 BIOM =   1932.9
  HRU      11 SUB   2 AGRC  Yld =   574.8 BIOM =   1856.7
  HRU      12 SUB   2 AGRC  Yld =   563.7 BIOM =   1820.8
  HRU      13 SUB   2 FRSE  Yld =   173.5 BIOM =    592.6
  HRU      14 SUB   2 FRSE  Yld =   169.4 BIOM =    578.7
  HRU      15 SUB   2 FRSE  Yld =   168.8 BIOM =    576.6
  HRU      16 SUB   2 FRSE  Yld =    63.5 BIOM =    217.7
  HRU      17 SUB   3 AGRC  Yld =   623.2 BIOM =   2018.2
  HRU      18 SUB   3 AGRC  Yld =   635.9 BIOM =   2059.4
  HRU      19 SUB   3 AGRC  Yld =   585.6 BIOM =   1896.5
  HRU      20 SUB   3 FRSE  Yld =   170.7 BIOM =    584.0
  HRU      21 SUB   3 FRSE  Yld =   174.7 BIOM =    597.8
  HRU      22 SUB   3 FRSE  Yld =   123.2 BIOM =    420.7
  HRU      23 SUB   3 FRSE  Yld =   122.9 BIOM =    419.7
  HRU      24 SUB   3 FRSE  Yld =   121.9 BIOM =    416.4
  HRU      25 SUB   4 AGRC  Yld =   506.6 BIOM =   1636.6
  HRU      26 SUB   4 AGRC  Yld =   505.1 BIOM =   1631.8
  HRU      27 SUB   4 AGRC  Yld =   476.5 BIOM =   1539.5
  HRU      28 SUB   4 AGRC  Yld =   464.3 BIOM =   1499.8
  HRU      29 SUB   4 FRSE  Yld =   175.2 BIOM =    600.1
  HRU      30 SUB   4 FRSE  Yld =   180.2 BIOM =    616.8
  HRU      31 SUB   4 FRSE  Yld =   176.5 BIOM =    604.2
  HRU      32 SUB   5 AGRC  Yld =   280.6 BIOM =    907.1
  HRU      33 SUB   5 RNGB  Yld =     0.2 BIOM =    202.0
  HRU      34 SUB   5 RNGB  Yld =     0.0 BIOM =     63.4
  HRU      35 SUB   5 FRSE  Yld =    80.8 BIOM =    277.5
  HRU      36 SUB   6 AGRC  Yld =   623.9 BIOM =   2020.4
  HRU      37 SUB   6 AGRC  Yld =   584.7 BIOM =   1893.6
  HRU      38 SUB   6 AGRC  Yld =   579.8 BIOM =   1877.9
  HRU      39 SUB   6 RNGB  Yld =     1.4 BIOM =     91.0
  HRU      40 SUB   6 RNGB  Yld =     1.0 BIOM =     72.2
  HRU      41 SUB   6 FRSE  Yld =   174.9 BIOM =    598.4
  HRU      42 SUB   6 FRSE  Yld =   113.4 BIOM =    387.1
  HRU      43 SUB   6 FRSE  Yld =   102.7 BIOM =    350.4
  HRU      44 SUB   7 AGRC  Yld =   602.0 BIOM =   1949.3
  HRU      45 SUB   7 AGRC  Yld =   616.8 BIOM =   1997.4
  HRU      46 SUB   7 FRSE  Yld =   173.8 BIOM =    594.8
  HRU      47 SUB   7 FRSE  Yld =   170.8 BIOM =    584.7
  HRU      48 SUB   8 AGRC  Yld =   661.1 BIOM =   2139.5
  HRU      49 SUB   8 AGRC  Yld =   444.2 BIOM =   1437.5
  HRU      50 SUB   8 FRSE  Yld =   365.9 BIOM =   1253.2
  HRU      51 SUB   8 FRSE  Yld =    58.8 BIOM =    202.0
  HRU      52 SUB   9 AGRC  Yld =   444.4 BIOM =   1438.1
  HRU      53 SUB   9 RNGB  Yld =     3.2 BIOM =    263.1
  HRU      54 SUB   9 RNGB  Yld =     0.9 BIOM =     56.9
  HRU      55 SUB   9 FRSE  Yld =   366.4 BIOM =   1254.9
  HRU      56 SUB   9 FRSE  Yld =    58.6 BIOM =    201.3
  HRU      57 SUB  10 AGRC  Yld =   339.3 BIOM =   1097.5
  HRU      58 SUB  10 AGRC  Yld =   256.5 BIOM =    829.7
  HRU      59 SUB  10 FRSE  Yld =   200.0 BIOM =    688.5
  HRU      60 SUB  10 FRSE  Yld =    84.0 BIOM =    289.1
  HRU      61 SUB  11 RNGB  Yld =     0.1 BIOM =    122.4
  HRU      62 SUB  11 RNGB  Yld =     0.0 BIOM =     62.8
  HRU      63 SUB  11 FRSE  Yld =   161.9 BIOM =    557.1
  HRU      64 SUB  11 FRSE  Yld =    82.1 BIOM =    282.6
  HRU      65 SUB  12 AGRC  Yld =   278.3 BIOM =    899.5
  HRU      66 SUB  12 AGRC  Yld =   282.2 BIOM =    912.1
  HRU      67 SUB  12 FRSE  Yld =   103.6 BIOM =    354.4
  HRU      68 SUB  12 FRSE  Yld =    84.4 BIOM =    290.2
  HRU      69 SUB  13 AGRC  Yld =   278.2 BIOM =    899.9
  HRU      70 SUB  13 AGRC  Yld =   254.0 BIOM =    821.6
  HRU      71 SUB  13 RNGB  Yld =     0.1 BIOM =    122.0
  HRU      72 SUB  13 FRSE  Yld =   162.4 BIOM =    558.6
  HRU      73 SUB  13 FRSE  Yld =    81.3 BIOM =    279.7
  HRU      74 SUB  14 AGRC  Yld =   559.4 BIOM =   1809.1
  HRU      75 SUB  14 AGRC  Yld =   571.9 BIOM =   1849.5
  HRU      76 SUB  14 AGRC  Yld =   570.4 BIOM =   1844.6
  HRU      77 SUB  14 AGRC  Yld =   523.2 BIOM =   1692.2
  HRU      78 SUB  14 AGRC  Yld =   527.3 BIOM =   1705.3
  HRU      79 SUB  14 FRSE  Yld =   155.1 BIOM =    531.4
  HRU      80 SUB  14 FRSE  Yld =   159.7 BIOM =    546.8
  HRU      81 SUB  14 FRSE  Yld =   155.9 BIOM =    534.1
  HRU      82 SUB  14 FRSE  Yld =   103.4 BIOM =    354.2
  HRU      83 SUB  14 FRSE  Yld =    99.1 BIOM =    339.5
  HRU      84 SUB  15 AGRC  Yld =   474.5 BIOM =   1535.1
  HRU      85 SUB  15 AGRC  Yld =   480.6 BIOM =   1554.9
  HRU      86 SUB  15 AGRC  Yld =   449.2 BIOM =   1453.2
  HRU      87 SUB  15 AGRC  Yld =   440.2 BIOM =   1424.2
  HRU      88 SUB  15 AGRC  Yld =   437.6 BIOM =   1416.0
  HRU      89 SUB  15 AGRC  Yld =   445.6 BIOM =   1441.5
  HRU      90 SUB  15 FRSE  Yld =   180.2 BIOM =    605.2
  HRU      91 SUB  15 FRSE  Yld =   183.5 BIOM =    616.1
  HRU      92 SUB  15 FRSE  Yld =   118.8 BIOM =    397.2
  HRU      93 SUB  15 FRSE  Yld =   114.4 BIOM =    382.5
  HRU      94 SUB  15 FRSE  Yld =   127.8 BIOM =    428.2
  HRU      95 SUB  15 FRSE  Yld =   128.9 BIOM =    432.1
  HRU      96 SUB  15 FRSE  Yld =   127.7 BIOM =    428.1
  HRU      97 SUB  15 FRSE  Yld =   127.5 BIOM =    427.3
  HRU      98 SUB  15 FRSE  Yld =   107.3 BIOM =    360.1
  HRU      99 SUB  16 AGRC  Yld =   694.7 BIOM =   2246.8
  HRU     100 SUB  16 AGRC  Yld =   680.3 BIOM =   2200.0
  HRU     101 SUB  16 AGRC  Yld =   694.2 BIOM =   2245.1
  HRU     102 SUB  16 FRSE  Yld =   200.3 BIOM =    347.4
  HRU     103 SUB  16 FRSE  Yld =   204.1 BIOM =    353.7
  HRU     104 SUB  16 FRSE  Yld =   201.0 BIOM =    348.6
  HRU     105 SUB  16 FRSE  Yld =   145.6 BIOM =    247.1
[...]
    145  20   SPESMB     .187E+01   81.00    8.05    2.49    0.00  101.03    0.00    0.20  539.56   74.98  273.33  141.88   23.71    3.21   20.37    2.06    0.64   74.98
    146  20   SPESMB     .652E+01   81.00    8.05    4.48    0.00   90.06    0.66    0.20  539.56   73.77  281.77  139.49   47.70    7.96   23.58    2.02    0.62   73.77
    147  20   SCALSEP    .180E+02   35.00    8.86    1.73    0.00    0.00    0.00    0.20  539.56    0.04  335.42  150.55    0.00    0.01    0.00    0.37    0.19    0.05
    148  20   SCALSEP    .175E+02   35.00    8.86    2.49    0.00    0.00    0.00    0.20  539.56    0.04  337.32  150.04    0.00    0.02    0.01    0.37    0.19    0.05
    149  20   SCALSEP    .144E+02   35.00    8.86    1.39    0.00    0.00    0.00    0.20  539.56    0.04  333.62  150.99    0.00    0.00    0.00    0.37    0.19    0.05
    150  20   SCALSEP    .348E+02   35.00    8.86    3.79    0.00    0.00    0.00    0.20  539.56    0.05  345.21  147.42    0.00    0.06    0.01    0.37    0.20    0.05
    151  20   SMB        .432E+02   35.00    7.95    0.09    0.00    0.00    0.00    0.20  539.56    0.03  339.73  144.08    0.00    0.00    0.00    0.27    0.15    0.03
    152  20   SMB        .128E+02   35.00    7.95    3.58    0.00    0.00    0.00    0.20  539.56    0.03  351.15  141.03    0.01    0.04    0.02    0.27    0.15    0.03
    153  20   SPE        .740E+01   55.00    8.05    1.33    0.00    0.00    0.00    0.20  539.56    4.65  335.13  144.74    1.44    0.00    2.66    0.29    0.16    4.65
    154  20   SPE        .591E+01   55.00    8.05    2.47    0.00    0.00    0.00    0.20  539.56    4.59  338.68  143.94    2.96    0.01    4.13    0.29    0.16    4.59
    155  20   SPE        .706E+01   55.00    8.05    1.71    0.00    0.00    0.00    0.20  539.56    4.62  336.86  144.37    2.02    0.01    3.24    0.29    0.16    4.62
    156  20   SPE        .976E+01   55.00    8.05    3.64    0.00    0.00    0.00    0.20  539.56    4.52  345.93  141.83    4.40    0.04    5.37    0.29    0.16    4.52
    157  21   SCALSEP    .705E+02   62.00    8.86    7.11    0.00   82.09    0.00    0.20  680.88   28.42  452.82  153.23    1.60    9.18   11.05    1.83    0.57   28.42
    158  21   SPESMB     .329E+02   81.00    8.05    6.72    0.00   82.56    1.57    0.20  680.88  123.42  365.68  147.10  141.88    9.07   27.16    1.72    0.53  123.42
    159  21   SCALSEP    .458E+02   35.00    8.86    6.98    0.00    0.00    0.00    0.20  680.88    0.66  476.64  156.51    0.00    0.08    0.04    0.61    0.04    0.66
    160  21   SPE        .210E+02   55.00    8.05    1.31    0.00    0.00    0.00    0.20  680.88   13.38  452.47  154.49    1.67    0.00    3.62    0.44    0.04   13.38
    161  21   SPE        .320E+02   55.00    8.05    4.21    0.00    0.00    0.00    0.20  680.88   13.27  466.62  151.19    6.16    0.04    7.94    0.43    0.03   13.27
    162  21   SPE        .166E+02   55.00    8.05    1.71    0.00    0.00    0.00    0.20  680.88   13.37  454.62  154.08    2.49    0.01    4.51    0.44    0.04   13.37
    163  22   SMB        .943E+01   62.00    7.95    6.24    0.00   93.15    0.00    0.20  680.88   26.01  457.30  149.20   12.63    9.83   14.27    2.06    0.64   26.01
    164  22   SPESMB     .265E+02   81.00    8.05    6.55    0.00   91.85    2.00    0.20  680.88  120.99  364.06  150.02  110.25    9.78   26.97    2.06    0.64  120.99
    165  22   SCALSEP    .526E+01   35.00    8.86    4.59    0.00    0.00    0.00    0.20  680.88    0.61  470.54  159.47    0.01    0.06    0.10    0.46    0.26    0.61
    166  22   SCALSEP    .155E+01   35.00    8.86    2.47    0.00    0.00    0.00    0.20  680.88    0.61  459.78  162.37    0.01    0.02    0.05    0.46    0.26    0.61
    167  22   SCALSEP    .140E+01   35.00    8.86    1.76    0.00    0.00    0.00    0.20  680.88    0.61  457.49  162.86    0.00    0.01    0.04    0.46    0.26    0.61
    168  22   SMB        .856E+01   35.00    7.95    5.10    0.00    0.00    0.00    0.20  680.88    0.55  478.69  151.61    0.13    0.04    0.27    0.32    0.18    0.55
    169  22   SPE        .371E+01   55.00    8.05    1.69    0.00    0.00    0.00    0.20  680.88   12.82  452.30  155.93    5.27    0.01    7.05    0.34    0.19   12.82
    170  22   SPE        .583E+01   55.00    8.05    1.28    0.00    0.00    0.00    0.20  680.88   12.84  450.15  156.36    3.76    0.00    5.91    0.34    0.20   12.84
    171  22   SPE        .553E+01   55.00    8.05    0.46    0.00    0.00    0.00    0.20  680.88   12.84  449.67  156.45    1.14    0.00    2.82    0.35    0.20   12.84
    172  22   SPE        .524E+01   55.00    8.05    3.99    0.00    0.00    0.00    0.20  680.88   12.71  464.02  153.09   13.47    0.04   11.39    0.32    0.19   12.71
    173  22   SPESMB     .109E+02   70.00    8.05    5.41    0.00    0.00    0.00    0.20  680.88   52.13  427.87  152.44   43.60    0.04   19.15    0.26    0.15   52.13
    174  23   SCALSEP    .256E+02   62.00    8.86    6.02    0.00   87.43    0.00    0.20  680.88   30.69  461.90  146.15    1.28    9.07    8.03    1.88    0.58   30.69
    175  23   SPE        .131E+02   73.00    8.05    4.21    0.00   88.93    0.36    0.20  680.88   72.11  424.74  140.93   67.65    7.82   24.30    1.77    0.55   72.11
    176  23   SPE        .481E+01   73.00    8.05    2.52    0.00  103.17    0.00    0.20  680.88   72.90  415.47  142.90   35.99    3.25   21.54    1.78    0.55   72.90
    177  23   SPE        .436E+01   73.00    8.05    1.73    0.00  106.27    0.00    0.20  680.88   73.08  413.29  143.29   24.57    1.91   19.64    1.77    0.55   73.08
    178  23   SPESMB     .251E+02   81.00    8.05    5.78    0.00   83.15    0.83    0.20  680.88  129.28  371.20  140.32   79.85    8.55   25.48    1.77    0.55  129.28
    179  23   SCALSEP    .330E+02   35.00    8.86    6.10    0.00    0.00    0.00    0.20  680.88    0.78  488.41  148.94    0.00    0.07    0.03    0.61    0.04    0.78
    180  23   SFER       .128E+02   55.00   14.09    3.92    0.00    0.00    0.00    0.20  680.88   19.11  436.90  181.39    1.82    0.09    4.59    0.97    0.06   19.11
    181  23   SFER       .458E+01   55.00   14.09    2.52    0.00    0.00    0.00    0.20  680.88   19.21  427.34  184.41    1.03    0.03    3.07    0.98    0.06   19.22
    182  23   SFER       .361E+01   55.00   14.09    1.76    0.00    0.00    0.00    0.20  680.88   19.24  425.04  185.01    0.70    0.02    2.30    0.98    0.06   19.24
    183  23   SPE        .900E+01   55.00    8.05    0.44    0.00    0.00    0.00    0.20  680.88   14.75  463.54  146.67    0.35    0.00    1.14    0.45    0.04   14.75
    184  23   SPE        .946E+01   55.00    8.05    3.46    0.00    0.00    0.00    0.20  680.88   14.68  476.60  143.99    3.13    0.04    5.23    0.44    0.03   14.68
    185  23   SPE        .773E+01   55.00    8.05    2.45    0.00    0.00    0.00    0.20  680.88   14.72  468.31  145.83    2.18    0.02    4.15    0.44    0.04   14.72
    186  23   SPE        .106E+02   55.00    8.05    1.69    0.00    0.00    0.00    0.20  680.88   14.73  466.10  146.24    1.55    0.01    3.31    0.44    0.04   14.73
    187  23   SPE        .130E+02   55.00    8.05    1.33    0.00    0.00    0.00    0.20  680.88   14.74  464.03  146.59    1.22    0.00    2.82    0.44    0.04   14.74
    188  24   SCALSEP    .671E+01   35.00    8.86    2.52    0.00    0.00    0.00    0.20  680.88    0.66  462.66  160.42    0.00    0.02    0.02    0.59    0.04    0.66
    189  24   SCALSEP    .222E+02   35.00    8.86    4.10    0.00    0.00    0.00    0.20  680.88    0.66  472.51  157.86    0.00    0.06    0.02    0.60    0.04    0.66
    190  24   SPE        .123E+02   55.00    8.05    1.69    0.00    0.00    0.00    0.20  680.88   13.36  454.55  154.12    2.43    0.01    4.41    0.44    0.04   13.36
    191  24   SPE        .146E+02   55.00    8.05    0.48    0.00    0.00    0.00    0.20  680.88   13.37  451.94  154.62    0.52    0.00    1.64    0.45    0.04   13.37
    192  24   SPE        .189E+02   55.00    8.05    1.31    0.00    0.00    0.00    0.20  680.88   13.37  452.42  154.53    1.65    0.00    3.59    0.44    0.04   13.37
    193  24   SPE        .128E+02   55.00    8.05    3.75    0.00    0.00    0.00    0.20  680.88   13.27  465.80  151.45    5.69    0.04    7.35    0.43    0.03   13.27
    194  25   SFER       .606E+01   73.00   14.09    2.49    0.00  110.33    0.00    0.20  688.95   82.68  373.91  184.94   45.47    3.22   29.46    2.65    0.82   82.68
    195  25   SFER       .200E+02   73.00   14.09    5.01    0.00   98.46    0.49    0.20  688.95   81.18  386.00  181.08  102.47    8.85   34.05    2.55    0.79   81.18
    196  25   SPESMB     .479E+02   81.00    8.05    5.78    0.00   97.90    0.72    0.20  688.95  127.11  377.05  144.68   71.98   10.47   25.86    1.84    0.57  127.11
    197  25   SFER       .275E+02   55.00   14.09    4.23    0.00    0.00    0.00    0.20  688.95   18.54  441.25  186.08    2.96    0.09    6.31    1.00    0.08   18.54
    198  25   SFER       .800E+01   55.00   14.09    1.78    0.00    0.00    0.00    0.20  688.95   19.99  426.80  190.65    1.25    0.02    3.50    1.01    0.08   19.99
    199  25   SFER       .974E+01   55.00   14.09    2.49    0.00    0.00    0.00    0.20  688.95   19.95  429.19  189.94    1.82    0.03    4.55    1.01    0.08   19.95
    200  25   SPE        .850E+01   55.00    8.05    2.47    0.00    0.00    0.00    0.20  688.95   14.88  471.35  150.68    3.02    0.02    5.10    0.44    0.04   14.88
    201  25   SPE        .923E+01   55.00    8.05    1.36    0.00    0.00    0.00    0.20  688.95   14.94  466.98  151.44    1.58    0.00    3.40    0.44    0.04   14.94
    202  25   SPE        .942E+01   55.00    8.05    1.71    0.00    0.00    0.00    0.20  688.95   14.91  469.10  151.09    2.09    0.01    4.03    0.44    0.04   14.91
    203  25   SPE        .164E+02   55.00    8.05    4.03    0.00    0.00    0.00    0.20  688.95   14.80  480.73  148.55    5.35    0.04    7.17    0.44    0.04   14.80
    204  25   SPESMB     .449E+02   70.00    8.05    7.91    0.00    0.00    0.00    0.20  688.95   56.42  445.26  146.97   25.14    0.05   17.22    0.35    0.03   56.42
    205  26   SPESMB     .176E+03   81.00    8.05    8.25    0.00   54.07    1.39    0.20  688.95  132.55  385.16  136.06   99.47    6.51   27.94    0.93    0.29  132.55
    206  26   SPESMB     .322E+03   70.00    8.05    8.65    0.00    0.00    0.00    0.20  688.95   59.84  453.02  139.59   14.32    0.05   17.50    0.33    0.00   59.84
    207  27   SCALSEP    .332E+01   62.00    8.86    2.52    0.00   85.92    0.00    0.20  495.42    8.56  288.59  148.07    0.20    2.73    1.63    1.48    0.46    8.56
    208  27   SCALSEP    .128E+02   62.00    8.86    4.75    0.00   73.24    0.00    0.20  495.42    8.18  297.51  144.89    0.43    7.04    2.84    1.45    0.45    8.18
    209  27   SPE        .270E+01   73.00    8.05    0.48    0.00   92.64    0.00    0.20  495.42   26.73  273.69  142.60    3.53    0.25    7.99    1.39    0.43   26.73
    210  27   SPE        .532E+01   73.00    8.05    4.05    0.00   75.36    0.00    0.20  495.42   26.15  284.73  139.34   40.20    6.65   21.49    1.38    0.43   26.15
    211  27   SPE        .265E+01   73.00    8.05    1.69    0.00   88.43    0.00    0.20  495.42   26.65  275.61  142.14   15.34    1.64   15.84    1.38    0.43   26.65
    212  27   SPE        .339E+01   73.00    8.05    1.31    0.00   92.71    0.00    0.20  495.42   26.72  274.05  142.50   11.34    0.52   14.15    1.40    0.43   26.72
    213  27   SPESMB     .122E+02   81.00    8.05    5.01    0.00   76.01    0.08    0.20  495.42   55.63  257.27  138.86   51.90    7.76   23.60    1.38    0.43   55.63
    214  27   SCALSEP    .115E+02   35.00    8.86    1.76    0.00    0.00    0.00    0.20  495.42    0.01  291.54  152.21    0.00    0.01    0.00    0.56    0.04    0.01
    215  27   SCALSEP    .316E+02   35.00    8.86    4.12    0.00    0.00    0.00    0.20  495.42    0.01  301.49  148.50    0.00    0.06    0.00    0.56    0.04    0.01
    216  27   SCALSEP    .126E+02   35.00    8.86    2.49    0.00    0.00    0.00    0.20  495.42    0.01  293.38  151.63    0.00    0.02    0.00    0.56    0.04    0.01
    217  27   SPE        .222E+02   55.00    8.05    1.69    0.00    0.00    0.00    0.20  495.42    2.87  295.10  145.49    0.46    0.01    0.99    0.42    0.03    2.87
    218  27   SPE        .237E+02   55.00    8.05    3.64    0.00    0.00    0.00    0.20  495.42    2.87  303.75  142.68    0.99    0.04    1.73    0.43    0.03    2.87
    219  27   SPE        .291E+02   55.00    8.05    1.33    0.00    0.00    0.00    0.20  495.42    2.87  293.52  145.89    0.32    0.00    0.81    0.42    0.03    2.87
    220  27   SPE        .195E+02   55.00    8.05    0.48    0.00    0.00    0.00    0.20  495.42    2.87  293.15  145.98    0.10    0.00    0.35    0.42    0.03    2.87
    221  27   SPESMB     .413E+02   70.00    8.05    4.98    0.00    0.00    0.00    0.20  495.42   19.00  289.90  141.93    6.40    0.04    9.22    0.37    0.03   19.00



                AVE MONTHLY BASIN VALUES
                   SNOW                      WATER               SED
  MON     RAIN     FALL   SURF Q    LAT Q    YIELD       ET    YIELD      PET
          (MM)     (MM)     (MM)     (MM)     (MM)     (MM)   (T/HA)     (MM)
    1   122.68     0.98    18.98    41.91   106.04    13.78    13.34    52.11
    2    93.57     0.24     9.30    31.59    83.96    13.66     6.83    58.79
    3    96.90     0.70     9.59    35.05    91.09    18.62     7.99   106.57
    4    87.03     0.00     6.87    29.16    76.44    20.82     5.46   111.31
    5    44.90     0.00     1.90    19.37    55.11    17.74     1.11   139.09
    6     8.50     0.00     0.02     4.35    22.14     4.69     0.00   185.87
    7     1.08     0.00     0.00     0.91     5.95     0.92     0.00   222.95
    8     5.51     0.00     0.10     1.20     2.72     2.23     0.06   211.69
    9    27.29     0.00     0.73     4.44     6.61     9.96     0.26   148.29
   10    79.02     0.00     5.72    19.02    29.41    17.60     2.95   111.47
   11   127.21     0.01    19.31    35.95    72.61    16.35     9.36    71.49
   12   144.11     0.31    22.48    43.28   100.00    16.06     9.90    51.22

     AVE ANNUAL BASIN STRESS DAYS
               WATER STRESS DAYS =   122.88
               TEMPERATURE STRESS DAYS =    24.67
               NITROGEN STRESS DAYS =    91.08
               PHOSPHORUS STRESS DAYS =     0.22
               AERATION STRESS DAYS =     0.00
1
    SWAT Aug 6  VER 2025/Rev 699                                                    

    General Input/Output section (file.cio):                                        
    10/21/2025 12:00:00 AM ARCGIS-SWAT interface AV                                 
                                                                                    
         AVE ANNUAL BASIN VALUES

              PRECIP =    837.3 MM
              SNOW FALL =    2.27 MM
              SNOW MELT =     2.19 MM
              SUBLIMATION =     0.08 MM
              SURFACE RUNOFF Q =    94.73 MM
              LATERAL SOIL Q =  266.84 MM
              TILE Q =     0.00 MM
              GROUNDWATER (SHAL AQ) Q =   277.74 MM
              GROUNDWATER (DEEP AQ) Q =    16.04 MM
              REVAP (SHAL AQ => SOIL/PLANTS) =   29.45 MM
              DEEP AQ RECHARGE =    16.16 MM
              TOTAL AQ RECHARGE =  323.25 MM
              TOTAL WATER YLD =   655.34 MM
              PERCOLATION OUT OF SOIL =  323.31 MM
              ET =    152.6 MM
              PET =   1472.3MM
              TRANSMISSION LOSSES =     0.00 MM
              SEPTIC INFLOW =     0.00 MM
              TOTAL SEDIMENT LOADING =     57.38 T/HA
              TILE FROM IMPOUNDED WATER =     0.000 (MM)
              EVAPORATION FROM IMPOUNDED WATER =     0.000 (MM)
              SEEPAGE INTO SOIL FROM IMPOUNDED WATER =    0.000 (MM)
              OVERFLOW FROM IMPOUNDED WATER =    0.000 (MM)
1
    SWAT Aug 6  VER 2025/Rev 699                                                    

    General Input/Output section (file.cio):                                        
    10/21/2025 12:00:00 AM ARCGIS-SWAT interface AV                                 
                                                                                    
              AVE ANNUAL BASIN VALUES


              NUTRIENTS
                   ORGANIC N =    13.940 (KG/HA)
                   ORGANIC P =     1.718 (KG/HA)
                   NO3 YIELD (SQ) =     0.129 (KG/HA)
                   NO3 YIELD (LAT) =    2.586 (KG/HA)
                   NO3 YIELD (TILE) =      0.000 (KG/HA)
                   SOLP YIELD (TILE) =    0.000(KG/HA)
                   SOLP YIELD (SURF INLET RISER) =    0.000 (KG/HA)
                   SOL P YIELD =    0.006 (KG/HA)
                   NO3 LEACHED =    14.978 (KG/HA)
                   P LEACHED =     0.096 (KG/HA)
                   N UPTAKE =     9.473 (KG/HA)
                   P UPTAKE =    1.198 (KG/HA)
                   NO3 YIELD (GWQ) =     0.095 (KG/HA)
                   ACTIVE TO SOLUTION P FLOW =        -0.400 (KG/HA)
                   ACTIVE TO STABLE P FLOW =        -0.245 (KG/HA)
                   N FERTILIZER APPLIED =    27.791 (KG/HA)
                   P FERTILIZER APPLIED =     0.000 (KG/HA)
                   N FIXATION =     0.000 (KG/HA)
                   DENITRIFICATION =     0.000 (KG/HA)
                   HUMUS MIN ON ACTIVE ORG N =     0.594 (KG/HA)
                   ACTIVE TO STABLE ORG N =     0.022 (KG/HA)
                   HUMUS MIN ON ACTIVE ORG P =    0.102 (KG/HA)
                   MIN FROM FRESH ORG N =    5.022 (KG/HA)
                   MIN FROM FRESH ORG P =    0.744 (KG/HA)
                   NO3 IN RAINFALL =       0.000 (KG/HA)
                   INITIAL NO3 IN SOIL =       6.945 (KG/HA)
                   FINAL NO3 IN SOIL =         2.630 (KG/HA)
                   INITIAL ORG N IN SOIL =    1114.593 (KG/HA)
                   FINAL ORG N IN SOIL =       793.191 (KG/HA)
                   INITIAL MIN P IN SOIL =     173.156 (KG/HA)
                   FINAL MIN P IN SOIL =       105.278 (KG/HA)
                   INITIAL ORG P IN SOIL =     136.538 (KG/HA)
                   FINAL ORG P IN SOIL =      97.045 (KG/HA)
                   NO3 IN FERT =    27.791 (KG/HA)
                   AMMONIA IN FERT =     0.000 (KG/HA)
                   ORG N IN FERT =     0.000 (KG/HA)
                   MINERAL P IN FERT =     0.225 (KG/HA)
                   ORG P IN FERT =     0.000 (KG/HA)
                   N REMOVED IN YIELD =     3.997 (KG/HA)
                   P REMOVED IN YIELD =     0.390 (KG/HA)
                   AMMONIA VOLATILIZATION =     0.000 (KG/HA)
                   AMMONIA NITRIFICATION =      0.000 (KG/HA)
                   NO3 EVAP-LAYER 2 TO 1 =    4.884

                   DIE-GRO P Q =           0.0 (No/M2)
                   DIE-GRO LP Q =           0.0 (No/M2)
                   DIE-GRO P SED =          0.0 (No/M2)
                   DIE-GRO LP SED =          0.0 (No/M2)
                   BACT P RUNOFF =          0.0 (No/M2)
                   BACT LP RUNOFF =          0.0 (No/M2)
                   BACT P SEDIMENT =          0.0 (No/M2)
                   BACT LP SEDIMENT =          0.0 (No/M2)
                   BACT P INCORP =          0.0 (No/M2)
                   BACT LP INCORP =          0.0 (No/M2)

                   NITRATE SEPTIC =         0.00 (kg/ha)
                   AMMONIA SEPTIC =         0.00 (kg/ha)
                   ORG N SEPTIC =         0.00 (kg/ha)
                   FRESH ORGN SEPTIC =         0.00 (kg/ha)
                   ORG P SEPTIC =         0.00 (kg/ha)
                   FRESH ORGP SEPTIC =         0.00 (kg/ha)
                   SOL P SEPTIC =         0.00 (kg/ha)
                   BOD SEPTIC =         0.00 (kg/ha)
